McPAT (version 1.3 of Feb, 2015) is computing the target processor...
 

McPAT (version 1.3 of Feb, 2015) results  (current print level is 5)
*****************************************************************************************
  Technology 65 nm
  Using Long Channel Devices When Appropriate
  Interconnect metal projection= aggressive interconnect technology projection
  Core clock Rate(MHz) 1600

*****************************************************************************************
Processor: 
  Area = 74.8126 mm^2
  Peak Power = 40.5315 W
  Total Leakage = 16.4872 W
  Peak Dynamic = 24.0443 W
  Subthreshold Leakage = 15.3446 W
  Gate Leakage = 1.14259 W
  Runtime Dynamic = 4.21612 W

  Total Cores: 1 cores 
  Device Type= ITRS high performance device type
    Area = 65.2335 mm^2
    Peak Dynamic = 17.7511 W
    Subthreshold Leakage = 14.6713 W
    Gate Leakage = 1.10514 W
    Runtime Dynamic = 4.08212 W

  Total L2s: 
  Device Type= ITRS high performance device type
    Area = 8.93442 mm^2
    Peak Dynamic = 2.8362 W
    Subthreshold Leakage = 0.614388 W
    Gate Leakage = 0.0308482 W
    Runtime Dynamic = 0.00196031 W

  Total NoCs (Network/Bus): 
  Device Type= ITRS high performance device type
    Area = 0.644653 mm^2
    Peak Dynamic = 3.45695 W
    Subthreshold Leakage = 0.0588887 W
    Gate Leakage = 0.00660175 W
    Runtime Dynamic = 0.132046 W

*****************************************************************************************
Core:
      Area = 65.2335 mm^2
      Peak Dynamic = 17.7511 W
      Subthreshold Leakage = 14.6713 W
      Gate Leakage = 1.10514 W
      Runtime Dynamic = 4.08212 W

      Instruction Fetch Unit:
        Area = 6.93846 mm^2
        Peak Dynamic = 2.07499 W
        Subthreshold Leakage = 1.1995 W
        Gate Leakage = 0.0763513 W
        Runtime Dynamic = 0.535923 W

          Instruction Cache:
            Area = 3.76459 mm^2
            Peak Dynamic = 1.22617 W
            Subthreshold Leakage = 0.447624 W
            Gate Leakage = 0.0289891 W
            Runtime Dynamic = 0.0538881 W

          Branch Target Buffer:
            Area = 1.03533 mm^2
            Peak Dynamic = 0.155068 W
            Subthreshold Leakage = 0.0528128 W
            Gate Leakage = 0.00213695 W
            Runtime Dynamic = 0.0102858 W

          Branch Predictor:
            Area = 0.0790153 mm^2
            Peak Dynamic = 0.0364762 W
            Subthreshold Leakage = 0.00244456 W
            Gate Leakage = 0.000214529 W
            Runtime Dynamic = 0.000935157 W

              Global Predictor:
                Area = 0.0099603 mm^2
                Peak Dynamic = 0.00261705 W
                Subthreshold Leakage = 0.000371946 W
                Gate Leakage = 3.81607e-05 W
                Runtime Dynamic = 0.00016632 W

              Local Predictor:
              L1_Local Predictor:
                Area = 0.0099603 mm^2
                Peak Dynamic = 0.00261705 W
                Subthreshold Leakage = 0.000371946 W
                Gate Leakage = 3.81607e-05 W
                Runtime Dynamic = 0.00016632 W

              L2_Local Predictor:
                Area = 0.0099603 mm^2
                Peak Dynamic = 0.00261705 W
                Subthreshold Leakage = 0.000371946 W
                Gate Leakage = 3.81607e-05 W
                Runtime Dynamic = 0.00016632 W

              Chooser:
                Area = 0.0099603 mm^2
                Peak Dynamic = 0.00261705 W
                Subthreshold Leakage = 0.000371946 W
                Gate Leakage = 3.81607e-05 W
                Runtime Dynamic = 0.00016632 W

              RAS:
                Area = 0.0391741 mm^2
                Peak Dynamic = 0.026008 W
                Subthreshold Leakage = 0.000956776 W
                Gate Leakage = 6.18858e-05 W
                Runtime Dynamic = 0.000269879 W

          Instruction Buffer:
            Area = 0.00867221 mm^2
            Peak Dynamic = 0.0462933 W
            Subthreshold Leakage = 0.00114838 W
            Gate Leakage = 6.74413e-05 W
            Runtime Dynamic = 0.0313839 W

          Instruction Decoder:
            Area = 1.93827 mm^2
            Peak Dynamic = 0.53268 W
            Subthreshold Leakage = 0.659852 W
            Gate Leakage = 0.0381395 W
            Runtime Dynamic = 0.361123 W

      Renaming Unit:
        Area = 0.336968 mm^2
        Peak Dynamic = 0.506123 W
        Subthreshold Leakage = 0.0410418 W
        Gate Leakage = 0.00721875 W
        Runtime Dynamic = 0.36257 W

          Int Front End RAT with 0 internal checkpoints:
            Area = 0.025747 mm^2
            Peak Dynamic = 0.051311 W
            Subthreshold Leakage = 0.000517404 W
            Gate Leakage = 5.24626e-05 W
            Runtime Dynamic = 0.0184083 W

          FP Front End RAT with 0 internal checkpoints:
            Area = 0.025747 mm^2
            Peak Dynamic = 0.051311 W
            Subthreshold Leakage = 0.000517404 W
            Gate Leakage = 5.24626e-05 W
            Runtime Dynamic = 0.00398319 W

          Free List:
            Area = 0.0653613 mm^2
            Peak Dynamic = 0.0280342 W
            Subthreshold Leakage = 0.00173675 W
            Gate Leakage = 0.0001089 W
            Runtime Dynamic = 0.0177119 W

          Int Retire RAT: 
            Area = 0.0322074 mm^2
            Peak Dynamic = 0.0250087 W
            Subthreshold Leakage = 0.00053943 W
            Gate Leakage = 5.41145e-05 W
            Runtime Dynamic = 0.00471206 W

          FP Retire RAT:
            Area = 0.0099603 mm^2
            Peak Dynamic = 0.00919621 W
            Subthreshold Leakage = 0.000371946 W
            Gate Leakage = 3.81607e-05 W
            Runtime Dynamic = 0.000694107 W

          FP Free List:
            Area = 0.0653613 mm^2
            Peak Dynamic = 0.0280342 W
            Subthreshold Leakage = 0.00173675 W
            Gate Leakage = 0.0001089 W
            Runtime Dynamic = 0.00383251 W

      Load Store Unit:
        Area = 15.3429 mm^2
        Peak Dynamic = 4.97796 W
        Subthreshold Leakage = 1.4658 W
        Gate Leakage = 0.109176 W
        Runtime Dynamic = 0.520707 W

          Data Cache:
            Area = 12.7324 mm^2
            Peak Dynamic = 4.52199 W
            Subthreshold Leakage = 1.34608 W
            Gate Leakage = 0.0959683 W
            Runtime Dynamic = 0.298959 W

          LoadQ:
            Area = 0.563883 mm^2
            Peak Dynamic = 0.19175 W
            Subthreshold Leakage = 0.0424807 W
            Gate Leakage = 0.00322446 W
            Runtime Dynamic = 0.0488035 W

          StoreQ:
            Area = 0.549477 mm^2
            Peak Dynamic = 0.185916 W
            Subthreshold Leakage = 0.0416137 W
            Gate Leakage = 0.00317903 W
            Runtime Dynamic = 0.0946374 W

      Memory Management Unit:
        Area = 2.15913 mm^2
        Peak Dynamic = 0.774412 W
        Subthreshold Leakage = 0.215372 W
        Runtime Dynamic = 0.195767 W

          Itlb:
            Area = 0.544221 mm^2
            Peak Dynamic = 0.164984 W
            Subthreshold Leakage = 0.0754318 W
            Gate Leakage = 0.00460206 W
            Runtime Dynamic = 0 W

          Dtlb:
            Area = 1.50232 mm^2
            Peak Dynamic = 0.413661 W
            Subthreshold Leakage = 0.104318 W
            Gate Leakage = 0.00612156 W
            Runtime Dynamic = 0 W

      Execution Unit:
        Area = 31.9899 mm^2
        Peak Dynamic = 9.41763 W
        Subthreshold Leakage = 7.97895 W
        Runtime Dynamic = 2.46715 W

          Register Files:
            Area = 0.863237 mm^2
            Peak Dynamic = 0.561256 W
            Subthreshold Leakage = 0.0251501 W
            Gate Leakage = 0.001176 W
            Runtime Dynamic = 0.141364 W

              Integer RF:
                Area = 0.431618 mm^2
                Peak Dynamic = 0.439195 W
                Subthreshold Leakage = 0.0125751 W
                Gate Leakage = 0.000588002 W
                Runtime Dynamic = 0.113212 W

              Floating Point RF:
                Area = 0.431618 mm^2
                Peak Dynamic = 0.122061 W
                Subthreshold Leakage = 0.0125751 W
                Gate Leakage = 0.000588002 W
                Runtime Dynamic = 0.0281514 W

          Instruction Scheduler:
            Area = 0.382419 mm^2
            Peak Dynamic = 0.69845 W
            Subthreshold Leakage = 0.0244284 W
            Gate Leakage = 0.00160542 W
            Runtime Dynamic = 0.458675 W

              Instruction Window:
                Area = 0.060737 mm^2
                Peak Dynamic = 0.14744 W
                Subthreshold Leakage = 0.00441295 W
                Gate Leakage = 0.000357946 W
                Runtime Dynamic = 0.146795 W

              FP Instruction Window:
                Area = 0.159975 mm^2
                Peak Dynamic = 0.279288 W
                Subthreshold Leakage = 0.0111713 W
                Gate Leakage = 0.000824553 W
                Runtime Dynamic = 0.0442153 W

              ROB:
                Area = 0.161707 mm^2
                Peak Dynamic = 0.271721 W
                Subthreshold Leakage = 0.00884412 W
                Gate Leakage = 0.000422925 W
                Runtime Dynamic = 0.267664 W

          Integer ALUs (Count: 6 ):
            Area = 0.672672 mm^2
            Peak Dynamic = 2.2031 W
            Subthreshold Leakage = 0.599188 W
            Gate Leakage = 0.0454759 W
            Runtime Dynamic = 0.48431 W

          Floating Point Units (FPUs) (Count: 6 ):
            Area = 29.1588 mm^2
            Peak Dynamic = 1.98279 W
            Subthreshold Leakage = 6.49334 W
            Gate Leakage = 0.492818 W
            Runtime Dynamic = 0.611081 W

          Complex ALUs (Mul/Div) (Count: 2 ):
            Area = 0.672672 mm^2
            Peak Dynamic = 0.484498 W
            Subthreshold Leakage = 0.599188 W
            Gate Leakage = 0.0454759 W
            Runtime Dynamic = 0.272699 W

          Results Broadcast Bus:
            Area Overhead = 0.12756 mm^2
            Peak Dynamic = 3.17431 W
            Subthreshold Leakage = 0.202028 W
            Gate Leakage = 0.0153331 W
            Runtime Dynamic = 0.185796 W

*****************************************************************************************
L2
      Area = 8.93442 mm^2
      Peak Dynamic = 2.8362 W
      Subthreshold Leakage = 0.614388 W
      Gate Leakage = 0.0308482 W
      Runtime Dynamic = 0.00196031 W

*****************************************************************************************
BUSES
      Area = 0.644653 mm^2
      Peak Dynamic = 3.45695 W
      Subthreshold Leakage = 0.0588887 W
      Gate Leakage = 0.00660175 W
      Runtime Dynamic = 0.132046 W

      Bus: 
        Area = 0.644653 mm^2
        Peak Dynamic = 3.45695 W
        Subthreshold Leakage = 0.0588887 W
        Gate Leakage = 0.00660175 W
        Runtime Dynamic = 0.132046 W

*****************************************************************************************
