McPAT (version 1.3 of Feb, 2015) is computing the target processor...
 

McPAT (version 1.3 of Feb, 2015) results  (current print level is 5)
*****************************************************************************************
  Technology 65 nm
  Using Long Channel Devices When Appropriate
  Interconnect metal projection= aggressive interconnect technology projection
  Core clock Rate(MHz) 2000

*****************************************************************************************
Processor: 
  Area = 99.8762 mm^2
  Peak Power = 80.4832 W
  Total Leakage = 17.0356 W
  Peak Dynamic = 63.4476 W
  Subthreshold Leakage = 15.7922 W
  Gate Leakage = 1.24341 W
  Runtime Dynamic = 10.0026 W

  Total Cores: 1 cores 
  Device Type= ITRS high performance device type
    Area = 92.0858 mm^2
    Peak Dynamic = 55.1671 W
    Subthreshold Leakage = 15.2761 W
    Gate Leakage = 1.20707 W
    Runtime Dynamic = 9.79729 W

  Total L2s: 
  Device Type= ITRS high performance device type
    Area = 7.04507 mm^2
    Peak Dynamic = 3.28478 W
    Subthreshold Leakage = 0.447928 W
    Gate Leakage = 0.02871 W
    Runtime Dynamic = 0.0162892 W

  Total NoCs (Network/Bus): 
  Device Type= ITRS high performance device type
    Area = 0.745285 mm^2
    Peak Dynamic = 4.99574 W
    Subthreshold Leakage = 0.0680814 W
    Gate Leakage = 0.0076323 W
    Runtime Dynamic = 0.18906 W

*****************************************************************************************
Core:
      Area = 92.0858 mm^2
      Peak Dynamic = 55.1671 W
      Subthreshold Leakage = 15.2761 W
      Gate Leakage = 1.20707 W
      Runtime Dynamic = 9.79729 W

      Instruction Fetch Unit:
        Area = 21.2167 mm^2
        Peak Dynamic = 8.69541 W
        Subthreshold Leakage = 1.32483 W
        Gate Leakage = 0.0961991 W
        Runtime Dynamic = 1.17257 W

          Instruction Cache:
            Area = 3.387 mm^2
            Peak Dynamic = 1.50829 W
            Subthreshold Leakage = 0.385273 W
            Gate Leakage = 0.026836 W
            Runtime Dynamic = 0.0546338 W

          Branch Target Buffer:
            Area = 8.82038 mm^2
            Peak Dynamic = 1.8184 W
            Subthreshold Leakage = 0.137821 W
            Gate Leakage = 0.00601162 W
            Runtime Dynamic = 0.0264564 W

          Branch Predictor:
            Area = 0.785259 mm^2
            Peak Dynamic = 0.536993 W
            Subthreshold Leakage = 0.00926587 W
            Gate Leakage = 0.000660513 W
            Runtime Dynamic = 0.00306489 W

              Global Predictor:
                Area = 0.0783228 mm^2
                Peak Dynamic = 0.0403718 W
                Subthreshold Leakage = 0.000800707 W
                Gate Leakage = 5.66636e-05 W
                Runtime Dynamic = 0.000522351 W

              Local Predictor:
              L1_Local Predictor:
                Area = 0.0783228 mm^2
                Peak Dynamic = 0.0403718 W
                Subthreshold Leakage = 0.000800707 W
                Gate Leakage = 5.66636e-05 W
                Runtime Dynamic = 0.000522351 W

              L2_Local Predictor:
                Area = 0.0783228 mm^2
                Peak Dynamic = 0.0403718 W
                Subthreshold Leakage = 0.000800707 W
                Gate Leakage = 5.66636e-05 W
                Runtime Dynamic = 0.000522351 W

              Chooser:
                Area = 0.0783228 mm^2
                Peak Dynamic = 0.0403718 W
                Subthreshold Leakage = 0.000800707 W
                Gate Leakage = 5.66636e-05 W
                Runtime Dynamic = 0.000522351 W

              RAS:
                Area = 0.471968 mm^2
                Peak Dynamic = 0.375505 W
                Subthreshold Leakage = 0.00606304 W
                Gate Leakage = 0.000433858 W
                Runtime Dynamic = 0.000975486 W

          Instruction Buffer:
            Area = 0.0693751 mm^2
            Peak Dynamic = 1.81913 W
            Subthreshold Leakage = 0.00553477 W
            Gate Leakage = 0.000278614 W
            Runtime Dynamic = 0.299989 W

          Instruction Decoder:
            Area = 7.75308 mm^2
            Peak Dynamic = 2.6634 W
            Subthreshold Leakage = 0.659852 W
            Gate Leakage = 0.0381395 W
            Runtime Dynamic = 0.439218 W

      Renaming Unit:
        Area = 1.88934 mm^2
        Peak Dynamic = 12.388 W
        Subthreshold Leakage = 0.139684 W
        Gate Leakage = 0.0250071 W
        Runtime Dynamic = 2.01225 W

          Int Front End RAT with 0 internal checkpoints:
            Area = 0.184722 mm^2
            Peak Dynamic = 5.1442 W
            Subthreshold Leakage = 0.00161077 W
            Gate Leakage = 0.000106646 W
            Runtime Dynamic = 0.451127 W

          FP Front End RAT with 0 internal checkpoints:
            Area = 0.184722 mm^2
            Peak Dynamic = 5.1442 W
            Subthreshold Leakage = 0.00161077 W
            Gate Leakage = 0.000106646 W
            Runtime Dynamic = 0.0987147 W

          Free List:
            Area = 0.480797 mm^2
            Peak Dynamic = 0.25164 W
            Subthreshold Leakage = 0.00388838 W
            Gate Leakage = 0.000203822 W
            Runtime Dynamic = 0.0445332 W

          Int Retire RAT: 
            Area = 0.0783228 mm^2
            Peak Dynamic = 0.099725 W
            Subthreshold Leakage = 0.000800707 W
            Gate Leakage = 5.66636e-05 W
            Runtime Dynamic = 0.00927879 W

          FP Retire RAT:
            Area = 0.0783228 mm^2
            Peak Dynamic = 0.099725 W
            Subthreshold Leakage = 0.000800707 W
            Gate Leakage = 5.66636e-05 W
            Runtime Dynamic = 0.00203037 W

          FP Free List:
            Area = 0.480797 mm^2
            Peak Dynamic = 0.25164 W
            Subthreshold Leakage = 0.00388838 W
            Gate Leakage = 0.000203822 W
            Runtime Dynamic = 0.00974467 W

      Load Store Unit:
        Area = 14.4344 mm^2
        Peak Dynamic = 6.37304 W
        Subthreshold Leakage = 1.4512 W
        Gate Leakage = 0.123501 W
        Runtime Dynamic = 0.93597 W

          Data Cache:
            Area = 11.6098 mm^2
            Peak Dynamic = 5.53724 W
            Subthreshold Leakage = 1.23828 W
            Gate Leakage = 0.0927196 W
            Runtime Dynamic = 0.409816 W

          LoadQ:
            Area = 0.549477 mm^2
            Peak Dynamic = 0.232395 W
            Subthreshold Leakage = 0.0416137 W
            Gate Leakage = 0.00317903 W
            Runtime Dynamic = 0.0555116 W

          StoreQ:
            Area = 0.597754 mm^2
            Peak Dynamic = 0.254191 W
            Subthreshold Leakage = 0.0442184 W
            Gate Leakage = 0.00332956 W
            Runtime Dynamic = 0.121436 W

      Memory Management Unit:
        Area = 2.4482 mm^2
        Peak Dynamic = 1.59632 W
        Subthreshold Leakage = 0.306834 W
        Runtime Dynamic = 0.873016 W

          Itlb:
            Area = 0.544221 mm^2
            Peak Dynamic = 0.20623 W
            Subthreshold Leakage = 0.0754318 W
            Gate Leakage = 0.00460206 W
            Runtime Dynamic = 0 W

          Dtlb:
            Area = 1.50232 mm^2
            Peak Dynamic = 0.517076 W
            Subthreshold Leakage = 0.104318 W
            Gate Leakage = 0.00612156 W
            Runtime Dynamic = 0 W

      Execution Unit:
        Area = 43.631 mm^2
        Peak Dynamic = 26.1144 W
        Subthreshold Leakage = 8.28294 W
        Runtime Dynamic = 4.80348 W

          Register Files:
            Area = 9.35294 mm^2
            Peak Dynamic = 8.61495 W
            Subthreshold Leakage = 0.108279 W
            Gate Leakage = 0.00649419 W
            Runtime Dynamic = 0.554403 W

              Integer RF:
                Area = 4.67647 mm^2
                Peak Dynamic = 6.92342 W
                Subthreshold Leakage = 0.0541396 W
                Gate Leakage = 0.00324709 W
                Runtime Dynamic = 0.445661 W

              Floating Point RF:
                Area = 4.67647 mm^2
                Peak Dynamic = 1.69153 W
                Subthreshold Leakage = 0.0541396 W
                Gate Leakage = 0.00324709 W
                Runtime Dynamic = 0.108742 W

          Instruction Scheduler:
            Area = 3.22484 mm^2
            Peak Dynamic = 5.66299 W
            Subthreshold Leakage = 0.125545 W
            Gate Leakage = 0.00916999 W
            Runtime Dynamic = 1.051 W

              Instruction Window:
                Area = 0.396298 mm^2
                Peak Dynamic = 0.809877 W
                Subthreshold Leakage = 0.018472 W
                Gate Leakage = 0.00143563 W
                Runtime Dynamic = 0.186614 W

              FP Instruction Window:
                Area = 1.30053 mm^2
                Peak Dynamic = 2.4339 W
                Subthreshold Leakage = 0.0855738 W
                Gate Leakage = 0.00653386 W
                Runtime Dynamic = 0.106074 W

              ROB:
                Area = 1.52801 mm^2
                Peak Dynamic = 2.41921 W
                Subthreshold Leakage = 0.021499 W
                Gate Leakage = 0.0012005 W
                Runtime Dynamic = 0.758309 W

          Integer ALUs (Count: 6 ):
            Area = 0.672672 mm^2
            Peak Dynamic = 2.72645 W
            Subthreshold Leakage = 0.599188 W
            Gate Leakage = 0.0454759 W
            Runtime Dynamic = 0.563905 W

          Floating Point Units (FPUs) (Count: 6 ):
            Area = 29.1588 mm^2
            Peak Dynamic = 2.45381 W
            Subthreshold Leakage = 6.49334 W
            Gate Leakage = 0.492818 W
            Runtime Dynamic = 0.676294 W

          Complex ALUs (Mul/Div) (Count: 2 ):
            Area = 0.672672 mm^2
            Peak Dynamic = 0.589168 W
            Subthreshold Leakage = 0.599188 W
            Gate Leakage = 0.0454759 W
            Runtime Dynamic = 0.28541 W

          Results Broadcast Bus:
            Area Overhead = 0.147465 mm^2
            Peak Dynamic = 4.67016 W
            Subthreshold Leakage = 0.230311 W
            Gate Leakage = 0.0174796 W
            Runtime Dynamic = 0.275652 W

*****************************************************************************************
L2
      Area = 7.04507 mm^2
      Peak Dynamic = 3.28478 W
      Subthreshold Leakage = 0.447928 W
      Gate Leakage = 0.02871 W
      Runtime Dynamic = 0.0162892 W

*****************************************************************************************
BUSES
      Area = 0.745285 mm^2
      Peak Dynamic = 4.99574 W
      Subthreshold Leakage = 0.0680814 W
      Gate Leakage = 0.0076323 W
      Runtime Dynamic = 0.18906 W

      Bus: 
        Area = 0.745285 mm^2
        Peak Dynamic = 4.99574 W
        Subthreshold Leakage = 0.0680814 W
        Gate Leakage = 0.0076323 W
        Runtime Dynamic = 0.18906 W

*****************************************************************************************
