McPAT (version 1.3 of Feb, 2015) is computing the target processor...
 

McPAT (version 1.3 of Feb, 2015) results  (current print level is 5)
*****************************************************************************************
  Technology 65 nm
  Using Long Channel Devices When Appropriate
  Interconnect metal projection= aggressive interconnect technology projection
  Core clock Rate(MHz) 2801

*****************************************************************************************
Processor: 
  Area = 104.96 mm^2
  Peak Power = 128.233 W
  Total Leakage = 17.7268 W
  Peak Dynamic = 110.506 W
  Subthreshold Leakage = 16.4216 W
  Gate Leakage = 1.30516 W
  Runtime Dynamic = 16.7183 W

  Total Cores: 1 cores 
  Device Type= ITRS high performance device type
    Area = 95.2617 mm^2
    Peak Dynamic = 98.3677 W
    Subthreshold Leakage = 15.7374 W
    Gate Leakage = 1.26649 W
    Runtime Dynamic = 16.4478 W

  Total L2s: 
  Device Type= ITRS high performance device type
    Area = 8.93442 mm^2
    Peak Dynamic = 4.96512 W
    Subthreshold Leakage = 0.614388 W
    Gate Leakage = 0.0308482 W
    Runtime Dynamic = 0.0281619 W

  Total NoCs (Network/Bus): 
  Device Type= ITRS high performance device type
    Area = 0.764089 mm^2
    Peak Dynamic = 7.17305 W
    Subthreshold Leakage = 0.069799 W
    Gate Leakage = 0.00782486 W
    Runtime Dynamic = 0.242351 W

*****************************************************************************************
Core:
      Area = 95.2617 mm^2
      Peak Dynamic = 98.3677 W
      Subthreshold Leakage = 15.7374 W
      Gate Leakage = 1.26649 W
      Runtime Dynamic = 16.4478 W

      Instruction Fetch Unit:
        Area = 7.49219 mm^2
        Peak Dynamic = 11.7636 W
        Subthreshold Leakage = 1.34251 W
        Gate Leakage = 0.10258 W
        Runtime Dynamic = 2.08177 W

          Instruction Cache:
            Area = 3.76459 mm^2
            Peak Dynamic = 2.14656 W
            Subthreshold Leakage = 0.447624 W
            Gate Leakage = 0.0289891 W
            Runtime Dynamic = 0.0832043 W

          Branch Target Buffer:
            Area = 1.03533 mm^2
            Peak Dynamic = 0.271465 W
            Subthreshold Leakage = 0.0528128 W
            Gate Leakage = 0.00213695 W
            Runtime Dynamic = 0.0160163 W

          Branch Predictor:
            Area = 0.0790153 mm^2
            Peak Dynamic = 0.0638561 W
            Subthreshold Leakage = 0.00244456 W
            Gate Leakage = 0.000214529 W
            Runtime Dynamic = 0.00145582 W

              Global Predictor:
                Area = 0.0099603 mm^2
                Peak Dynamic = 0.00458147 W
                Subthreshold Leakage = 0.000371946 W
                Gate Leakage = 3.81607e-05 W
                Runtime Dynamic = 0.00025948 W

              Local Predictor:
              L1_Local Predictor:
                Area = 0.0099603 mm^2
                Peak Dynamic = 0.00458147 W
                Subthreshold Leakage = 0.000371946 W
                Gate Leakage = 3.81607e-05 W
                Runtime Dynamic = 0.00025948 W

              L2_Local Predictor:
                Area = 0.0099603 mm^2
                Peak Dynamic = 0.00458147 W
                Subthreshold Leakage = 0.000371946 W
                Gate Leakage = 3.81607e-05 W
                Runtime Dynamic = 0.00025948 W

              Chooser:
                Area = 0.0099603 mm^2
                Peak Dynamic = 0.00458147 W
                Subthreshold Leakage = 0.000371946 W
                Gate Leakage = 3.81607e-05 W
                Runtime Dynamic = 0.00025948 W

              RAS:
                Area = 0.0391741 mm^2
                Peak Dynamic = 0.0455302 W
                Subthreshold Leakage = 0.000956776 W
                Gate Leakage = 6.18858e-05 W
                Runtime Dynamic = 0.0004179 W

          Instruction Buffer:
            Area = 0.134881 mm^2
            Peak Dynamic = 7.69151 W
            Subthreshold Leakage = 0.00888299 W
            Gate Leakage = 0.000460212 W
            Runtime Dynamic = 0.766134 W

          Instruction Decoder:
            Area = 1.93827 mm^2
            Peak Dynamic = 0.932524 W
            Subthreshold Leakage = 0.659852 W
            Gate Leakage = 0.0381395 W
            Runtime Dynamic = 0.557319 W

      Renaming Unit:
        Area = 2.16684 mm^2
        Peak Dynamic = 4.26244 W
        Subthreshold Leakage = 0.183401 W
        Gate Leakage = 0.0333877 W
        Runtime Dynamic = 2.7358 W

          Int Front End RAT with 0 internal checkpoints:
            Area = 0.025747 mm^2
            Peak Dynamic = 0.0898263 W
            Subthreshold Leakage = 0.000517404 W
            Gate Leakage = 5.24626e-05 W
            Runtime Dynamic = 0.0283177 W

          FP Front End RAT with 0 internal checkpoints:
            Area = 0.390059 mm^2
            Peak Dynamic = 0.927066 W
            Subthreshold Leakage = 0.00248417 W
            Gate Leakage = 0.000162095 W
            Runtime Dynamic = 0.0109368 W

          Free List:
            Area = 0.131231 mm^2
            Peak Dynamic = 0.0629106 W
            Subthreshold Leakage = 0.00215625 W
            Gate Leakage = 0.000122342 W
            Runtime Dynamic = 0.0350064 W

          Int Retire RAT: 
            Area = 0.0783228 mm^2
            Peak Dynamic = 0.139665 W
            Subthreshold Leakage = 0.000800707 W
            Gate Leakage = 5.66636e-05 W
            Runtime Dynamic = 0.0118555 W

          FP Retire RAT:
            Area = 0.167447 mm^2
            Peak Dynamic = 0.284722 W
            Subthreshold Leakage = 0.0013944 W
            Gate Leakage = 8.91613e-05 W
            Runtime Dynamic = 0.00356999 W

          FP Free List:
            Area = 0.83393 mm^2
            Peak Dynamic = 0.127681 W
            Subthreshold Leakage = 0.0051586 W
            Gate Leakage = 0.000265365 W
            Runtime Dynamic = 0.0155433 W

      Load Store Unit:
        Area = 14.6365 mm^2
        Peak Dynamic = 9.15208 W
        Subthreshold Leakage = 1.50017 W
        Gate Leakage = 0.132152 W
        Runtime Dynamic = 1.41269 W

          Data Cache:
            Area = 11.6098 mm^2
            Peak Dynamic = 7.75491 W
            Subthreshold Leakage = 1.23828 W
            Gate Leakage = 0.0927196 W
            Runtime Dynamic = 0.52452 W

          LoadQ:
            Area = 0.655618 mm^2
            Peak Dynamic = 0.414057 W
            Subthreshold Leakage = 0.0493864 W
            Gate Leakage = 0.00361371 W
            Runtime Dynamic = 0.0896263 W

          StoreQ:
            Area = 0.549477 mm^2
            Peak Dynamic = 0.325469 W
            Subthreshold Leakage = 0.0416137 W
            Gate Leakage = 0.00317903 W
            Runtime Dynamic = 0.140902 W

      Memory Management Unit:
        Area = 2.58664 mm^2
        Peak Dynamic = 2.6571 W
        Subthreshold Leakage = 0.35064 W
        Runtime Dynamic = 1.64411 W

          Itlb:
            Area = 0.544221 mm^2
            Peak Dynamic = 0.288825 W
            Subthreshold Leakage = 0.0754318 W
            Gate Leakage = 0.00460206 W
            Runtime Dynamic = 0 W

          Dtlb:
            Area = 1.50232 mm^2
            Peak Dynamic = 0.724165 W
            Subthreshold Leakage = 0.104318 W
            Gate Leakage = 0.00612156 W
            Runtime Dynamic = 0 W

      Execution Unit:
        Area = 59.9134 mm^2
        Peak Dynamic = 70.5326 W
        Subthreshold Leakage = 8.59002 W
        Runtime Dynamic = 8.57345 W

          Register Files:
            Area = 19.9578 mm^2
            Peak Dynamic = 25.5962 W
            Subthreshold Leakage = 0.194556 W
            Gate Leakage = 0.0123226 W
            Runtime Dynamic = 1.00119 W

              Integer RF:
                Area = 9.9789 mm^2
                Peak Dynamic = 20.6756 W
                Subthreshold Leakage = 0.097278 W
                Gate Leakage = 0.00616128 W
                Runtime Dynamic = 0.805892 W

              Floating Point RF:
                Area = 9.9789 mm^2
                Peak Dynamic = 4.92055 W
                Subthreshold Leakage = 0.097278 W
                Gate Leakage = 0.00616128 W
                Runtime Dynamic = 0.1953 W

          Instruction Scheduler:
            Area = 8.74625 mm^2
            Peak Dynamic = 26.9213 W
            Subthreshold Leakage = 0.277486 W
            Gate Leakage = 0.0207171 W
            Runtime Dynamic = 2.79123 W

              Instruction Window:
                Area = 1.59696 mm^2
                Peak Dynamic = 7.61121 W
                Subthreshold Leakage = 0.0470725 W
                Gate Leakage = 0.00365979 W
                Runtime Dynamic = 1.36735 W

              FP Instruction Window:
                Area = 4.70416 mm^2
                Peak Dynamic = 14.3627 W
                Subthreshold Leakage = 0.202368 W
                Gate Leakage = 0.0152176 W
                Runtime Dynamic = 0.334693 W

              ROB:
                Area = 2.44514 mm^2
                Peak Dynamic = 4.94739 W
                Subthreshold Leakage = 0.0280457 W
                Gate Leakage = 0.00183972 W
                Runtime Dynamic = 1.08919 W

          Integer ALUs (Count: 6 ):
            Area = 0.672672 mm^2
            Peak Dynamic = 3.77446 W
            Subthreshold Leakage = 0.599188 W
            Gate Leakage = 0.0454759 W
            Runtime Dynamic = 0.687435 W

          Floating Point Units (FPUs) (Count: 6 ):
            Area = 29.1588 mm^2
            Peak Dynamic = 3.39702 W
            Subthreshold Leakage = 6.49334 W
            Gate Leakage = 0.492818 W
            Runtime Dynamic = 0.765772 W

          Complex ALUs (Mul/Div) (Count: 2 ):
            Area = 0.672672 mm^2
            Peak Dynamic = 0.798771 W
            Subthreshold Leakage = 0.599188 W
            Gate Leakage = 0.0454759 W
            Runtime Dynamic = 0.301937 W

          Results Broadcast Bus:
            Area Overhead = 0.165127 mm^2
            Peak Dynamic = 7.41428 W
            Subthreshold Leakage = 0.255373 W
            Gate Leakage = 0.0193818 W
            Runtime Dynamic = 0.395318 W

*****************************************************************************************
L2
      Area = 8.93442 mm^2
      Peak Dynamic = 4.96512 W
      Subthreshold Leakage = 0.614388 W
      Gate Leakage = 0.0308482 W
      Runtime Dynamic = 0.0281619 W

*****************************************************************************************
BUSES
      Area = 0.764089 mm^2
      Peak Dynamic = 7.17305 W
      Subthreshold Leakage = 0.069799 W
      Gate Leakage = 0.00782486 W
      Runtime Dynamic = 0.242351 W

      Bus: 
        Area = 0.764089 mm^2
        Peak Dynamic = 7.17305 W
        Subthreshold Leakage = 0.069799 W
        Gate Leakage = 0.00782486 W
        Runtime Dynamic = 0.242351 W

*****************************************************************************************
