McPAT (version 1.3 of Feb, 2015) is computing the target processor...
 

McPAT (version 1.3 of Feb, 2015) results  (current print level is 5)
*****************************************************************************************
  Technology 65 nm
  Using Long Channel Devices When Appropriate
  Interconnect metal projection= aggressive interconnect technology projection
  Core clock Rate(MHz) 2000

*****************************************************************************************
Processor: 
  Area = 132.187 mm^2
  Peak Power = 97.4802 W
  Total Leakage = 19.8295 W
  Peak Dynamic = 77.6506 W
  Subthreshold Leakage = 18.499 W
  Gate Leakage = 1.33052 W
  Runtime Dynamic = 12.4463 W

  Total Cores: 1 cores 
  Device Type= ITRS high performance device type
    Area = 97.0842 mm^2
    Peak Dynamic = 67.14 W
    Subthreshold Leakage = 16.0714 W
    Gate Leakage = 1.27197 W
    Runtime Dynamic = 12.2159 W

  Total L2s: 
  Device Type= ITRS high performance device type
    Area = 34.2451 mm^2
    Peak Dynamic = 4.76051 W
    Subthreshold Leakage = 2.3493 W
    Gate Leakage = 0.0497633 W
    Runtime Dynamic = 0.00246852 W

  Total NoCs (Network/Bus): 
  Device Type= ITRS high performance device type
    Area = 0.857825 mm^2
    Peak Dynamic = 5.75011 W
    Subthreshold Leakage = 0.0783618 W
    Gate Leakage = 0.00878479 W
    Runtime Dynamic = 0.227919 W

*****************************************************************************************
Core:
      Area = 97.0842 mm^2
      Peak Dynamic = 67.14 W
      Subthreshold Leakage = 16.0714 W
      Gate Leakage = 1.27197 W
      Runtime Dynamic = 12.2159 W

      Instruction Fetch Unit:
        Area = 8.15166 mm^2
        Peak Dynamic = 8.41647 W
        Subthreshold Leakage = 1.46297 W
        Gate Leakage = 0.105978 W
        Runtime Dynamic = 1.63201 W

          Instruction Cache:
            Area = 4.44346 mm^2
            Peak Dynamic = 1.5665 W
            Subthreshold Leakage = 0.574222 W
            Gate Leakage = 0.0335599 W
            Runtime Dynamic = 0.0739394 W

          Branch Target Buffer:
            Area = 1.03533 mm^2
            Peak Dynamic = 0.193834 W
            Subthreshold Leakage = 0.0528128 W
            Gate Leakage = 0.00213695 W
            Runtime Dynamic = 0.0118018 W

          Branch Predictor:
            Area = 0.0790153 mm^2
            Peak Dynamic = 0.0455952 W
            Subthreshold Leakage = 0.00244456 W
            Gate Leakage = 0.000214529 W
            Runtime Dynamic = 0.00112544 W

              Global Predictor:
                Area = 0.0099603 mm^2
                Peak Dynamic = 0.00327131 W
                Subthreshold Leakage = 0.000371946 W
                Gate Leakage = 3.81607e-05 W
                Runtime Dynamic = 0.000193843 W

              Local Predictor:
              L1_Local Predictor:
                Area = 0.0099603 mm^2
                Peak Dynamic = 0.00327131 W
                Subthreshold Leakage = 0.000371946 W
                Gate Leakage = 3.81607e-05 W
                Runtime Dynamic = 0.000193843 W

              L2_Local Predictor:
                Area = 0.0099603 mm^2
                Peak Dynamic = 0.00327131 W
                Subthreshold Leakage = 0.000371946 W
                Gate Leakage = 3.81607e-05 W
                Runtime Dynamic = 0.000193843 W

              Chooser:
                Area = 0.0099603 mm^2
                Peak Dynamic = 0.00327131 W
                Subthreshold Leakage = 0.000371946 W
                Gate Leakage = 3.81607e-05 W
                Runtime Dynamic = 0.000193843 W

              RAS:
                Area = 0.0391741 mm^2
                Peak Dynamic = 0.03251 W
                Subthreshold Leakage = 0.000956776 W
                Gate Leakage = 6.18858e-05 W
                Runtime Dynamic = 0.000350067 W

          Instruction Buffer:
            Area = 0.134881 mm^2
            Peak Dynamic = 5.49197 W
            Subthreshold Leakage = 0.00888299 W
            Gate Leakage = 0.000460212 W
            Runtime Dynamic = 0.632401 W

          Instruction Decoder:
            Area = 1.93827 mm^2
            Peak Dynamic = 0.66585 W
            Subthreshold Leakage = 0.659852 W
            Gate Leakage = 0.0381395 W
            Runtime Dynamic = 0.460036 W

      Renaming Unit:
        Area = 1.72313 mm^2
        Peak Dynamic = 2.858 W
        Subthreshold Leakage = 0.175186 W
        Gate Leakage = 0.0321393 W
        Runtime Dynamic = 1.87923 W

          Int Front End RAT with 0 internal checkpoints:
            Area = 0.025747 mm^2
            Peak Dynamic = 0.0641387 W
            Subthreshold Leakage = 0.000517404 W
            Gate Leakage = 5.24626e-05 W
            Runtime Dynamic = 0.0231743 W

          FP Front End RAT with 0 internal checkpoints:
            Area = 0.390059 mm^2
            Peak Dynamic = 0.661954 W
            Subthreshold Leakage = 0.00248417 W
            Gate Leakage = 0.000162095 W
            Runtime Dynamic = 0.00898674 W

          Free List:
            Area = 0.0404774 mm^2
            Peak Dynamic = 0.0288935 W
            Subthreshold Leakage = 0.00118094 W
            Gate Leakage = 8.40627e-05 W
            Runtime Dynamic = 0.0183957 W

          Int Retire RAT: 
            Area = 0.0099603 mm^2
            Peak Dynamic = 0.0114953 W
            Subthreshold Leakage = 0.000371946 W
            Gate Leakage = 3.81607e-05 W
            Runtime Dynamic = 0.00404921 W

          FP Retire RAT:
            Area = 0.167447 mm^2
            Peak Dynamic = 0.2033 W
            Subthreshold Leakage = 0.0013944 W
            Gate Leakage = 8.91613e-05 W
            Runtime Dynamic = 0.00293841 W

          FP Free List:
            Area = 0.568743 mm^2
            Peak Dynamic = 0.0773778 W
            Subthreshold Leakage = 0.00448473 W
            Gate Leakage = 0.000245996 W
            Runtime Dynamic = 0.0108384 W

      Load Store Unit:
        Area = 17.2196 mm^2
        Peak Dynamic = 6.787 W
        Subthreshold Leakage = 1.74156 W
        Gate Leakage = 0.138352 W
        Runtime Dynamic = 1.11721 W

          Data Cache:
            Area = 13.9853 mm^2
            Peak Dynamic = 5.82591 W
            Subthreshold Leakage = 1.48837 W
            Gate Leakage = 0.100226 W
            Runtime Dynamic = 0.473674 W

          LoadQ:
            Area = 0.597754 mm^2
            Peak Dynamic = 0.254191 W
            Subthreshold Leakage = 0.0442184 W
            Gate Leakage = 0.00332956 W
            Runtime Dynamic = 0.0636071 W

          StoreQ:
            Area = 0.597754 mm^2
            Peak Dynamic = 0.254191 W
            Subthreshold Leakage = 0.0442184 W
            Gate Leakage = 0.00332956 W
            Runtime Dynamic = 0.127214 W

      Memory Management Unit:
        Area = 2.56725 mm^2
        Peak Dynamic = 1.85508 W
        Subthreshold Leakage = 0.344502 W
        Runtime Dynamic = 1.13178 W

          Itlb:
            Area = 0.544221 mm^2
            Peak Dynamic = 0.20623 W
            Subthreshold Leakage = 0.0754318 W
            Gate Leakage = 0.00460206 W
            Runtime Dynamic = 0 W

          Dtlb:
            Area = 1.50232 mm^2
            Peak Dynamic = 0.517076 W
            Subthreshold Leakage = 0.104318 W
            Gate Leakage = 0.00612156 W
            Runtime Dynamic = 0 W

      Execution Unit:
        Area = 58.9564 mm^2
        Peak Dynamic = 47.2234 W
        Subthreshold Leakage = 8.57649 W
        Runtime Dynamic = 6.45564 W

          Register Files:
            Area = 19.9578 mm^2
            Peak Dynamic = 18.2765 W
            Subthreshold Leakage = 0.194556 W
            Gate Leakage = 0.0123226 W
            Runtime Dynamic = 0.832278 W

              Integer RF:
                Area = 9.9789 mm^2
                Peak Dynamic = 14.763 W
                Subthreshold Leakage = 0.097278 W
                Gate Leakage = 0.00616128 W
                Runtime Dynamic = 0.66904 W

              Floating Point RF:
                Area = 9.9789 mm^2
                Peak Dynamic = 3.51342 W
                Subthreshold Leakage = 0.097278 W
                Gate Leakage = 0.00616128 W
                Runtime Dynamic = 0.163238 W

          Instruction Scheduler:
            Area = 7.80908 mm^2
            Peak Dynamic = 16.089 W
            Subthreshold Leakage = 0.270708 W
            Gate Leakage = 0.0202376 W
            Runtime Dynamic = 1.91593 W

              Instruction Window:
                Area = 1.27297 mm^2
                Peak Dynamic = 4.41018 W
                Subthreshold Leakage = 0.0444694 W
                Gate Leakage = 0.00344557 W
                Runtime Dynamic = 0.871609 W

              FP Instruction Window:
                Area = 4.09098 mm^2
                Peak Dynamic = 8.96766 W
                Subthreshold Leakage = 0.198192 W
                Gate Leakage = 0.0149523 W
                Runtime Dynamic = 0.247779 W

              ROB:
                Area = 2.44514 mm^2
                Peak Dynamic = 2.71118 W
                Subthreshold Leakage = 0.0280457 W
                Gate Leakage = 0.00183972 W
                Runtime Dynamic = 0.796546 W

          Integer ALUs (Count: 6 ):
            Area = 0.672672 mm^2
            Peak Dynamic = 2.72645 W
            Subthreshold Leakage = 0.599188 W
            Gate Leakage = 0.0454759 W
            Runtime Dynamic = 0.585579 W

          Floating Point Units (FPUs) (Count: 6 ):
            Area = 29.1588 mm^2
            Peak Dynamic = 2.45381 W
            Subthreshold Leakage = 6.49334 W
            Gate Leakage = 0.492818 W
            Runtime Dynamic = 0.692453 W

          Complex ALUs (Mul/Div) (Count: 2 ):
            Area = 0.672672 mm^2
            Peak Dynamic = 0.589168 W
            Subthreshold Leakage = 0.599188 W
            Gate Leakage = 0.0454759 W
            Runtime Dynamic = 0.288538 W

          Results Broadcast Bus:
            Area Overhead = 0.164675 mm^2
            Peak Dynamic = 5.27769 W
            Subthreshold Leakage = 0.25475 W
            Gate Leakage = 0.0193345 W
            Runtime Dynamic = 0.33001 W

*****************************************************************************************
L2
      Area = 34.2451 mm^2
      Peak Dynamic = 4.76051 W
      Subthreshold Leakage = 2.3493 W
      Gate Leakage = 0.0497633 W
      Runtime Dynamic = 0.00246852 W

*****************************************************************************************
BUSES
      Area = 0.857825 mm^2
      Peak Dynamic = 5.75011 W
      Subthreshold Leakage = 0.0783618 W
      Gate Leakage = 0.00878479 W
      Runtime Dynamic = 0.227919 W

      Bus: 
        Area = 0.857825 mm^2
        Peak Dynamic = 5.75011 W
        Subthreshold Leakage = 0.0783618 W
        Gate Leakage = 0.00878479 W
        Runtime Dynamic = 0.227919 W

*****************************************************************************************
