McPAT (version 1.3 of Feb, 2015) is computing the target processor...
 

McPAT (version 1.3 of Feb, 2015) results  (current print level is 5)
*****************************************************************************************
  Technology 65 nm
  Using Long Channel Devices When Appropriate
  Interconnect metal projection= aggressive interconnect technology projection
  Core clock Rate(MHz) 1400

*****************************************************************************************
Processor: 
  Area = 97.1424 mm^2
  Peak Power = 55.5064 W
  Total Leakage = 17.8963 W
  Peak Dynamic = 37.6101 W
  Subthreshold Leakage = 16.6377 W
  Gate Leakage = 1.25861 W
  Runtime Dynamic = 7.62254 W

  Total Cores: 1 cores 
  Device Type= ITRS high performance device type
    Area = 82.9539 mm^2
    Peak Dynamic = 31.5248 W
    Subthreshold Leakage = 15.6953 W
    Gate Leakage = 1.2172 W
    Runtime Dynamic = 7.47198 W

  Total L2s: 
  Device Type= ITRS high performance device type
    Area = 13.4536 mm^2
    Peak Dynamic = 2.63666 W
    Subthreshold Leakage = 0.875281 W
    Gate Leakage = 0.0338801 W
    Runtime Dynamic = 0.00121364 W

  Total NoCs (Network/Bus): 
  Device Type= ITRS high performance device type
    Area = 0.734976 mm^2
    Peak Dynamic = 3.44864 W
    Subthreshold Leakage = 0.0671396 W
    Gate Leakage = 0.00752672 W
    Runtime Dynamic = 0.149342 W

*****************************************************************************************
Core:
      Area = 82.9539 mm^2
      Peak Dynamic = 31.5248 W
      Subthreshold Leakage = 15.6953 W
      Gate Leakage = 1.2172 W
      Runtime Dynamic = 7.47198 W

      Instruction Fetch Unit:
        Area = 9.1491 mm^2
        Peak Dynamic = 3.43305 W
        Subthreshold Leakage = 1.49539 W
        Gate Leakage = 0.100836 W
        Runtime Dynamic = 0.937841 W

          Instruction Cache:
            Area = 4.44346 mm^2
            Peak Dynamic = 1.09655 W
            Subthreshold Leakage = 0.574222 W
            Gate Leakage = 0.0335599 W
            Runtime Dynamic = 0.0729331 W

          Branch Target Buffer:
            Area = 1.03533 mm^2
            Peak Dynamic = 0.135684 W
            Subthreshold Leakage = 0.0528128 W
            Gate Leakage = 0.00213695 W
            Runtime Dynamic = 0.0107203 W

          Branch Predictor:
            Area = 1.27471 mm^2
            Peak Dynamic = 0.225222 W
            Subthreshold Leakage = 0.0802185 W
            Gate Leakage = 0.00327525 W
            Runtime Dynamic = 0.0124464 W

              Global Predictor:
                Area = 0.442563 mm^2
                Peak Dynamic = 0.067945 W
                Subthreshold Leakage = 0.0280468 W
                Gate Leakage = 0.00110975 W
                Runtime Dynamic = 0.00401162 W

              Local Predictor:
              L1_Local Predictor:
                Area = 0.223592 mm^2
                Peak Dynamic = 0.0403822 W
                Subthreshold Leakage = 0.0152512 W
                Gate Leakage = 0.000630359 W
                Runtime Dynamic = 0.00254841 W

              L2_Local Predictor:
                Area = 0.126814 mm^2
                Peak Dynamic = 0.0261924 W
                Subthreshold Leakage = 0.00791691 W
                Gate Leakage = 0.0003635 W
                Runtime Dynamic = 0.00160705 W

              Chooser:
                Area = 0.442563 mm^2
                Peak Dynamic = 0.067945 W
                Subthreshold Leakage = 0.0280468 W
                Gate Leakage = 0.00110975 W
                Runtime Dynamic = 0.00401162 W

              RAS:
                Area = 0.0391741 mm^2
                Peak Dynamic = 0.022757 W
                Subthreshold Leakage = 0.000956776 W
                Gate Leakage = 6.18858e-05 W
                Runtime Dynamic = 0.000267719 W

          Instruction Buffer:
            Area = 0.0693751 mm^2
            Peak Dynamic = 1.27339 W
            Subthreshold Leakage = 0.00553477 W
            Gate Leakage = 0.000278614 W
            Runtime Dynamic = 0.24578 W

          Instruction Decoder:
            Area = 1.93827 mm^2
            Peak Dynamic = 0.466095 W
            Subthreshold Leakage = 0.659852 W
            Gate Leakage = 0.0381395 W
            Runtime Dynamic = 0.35985 W

      Renaming Unit:
        Area = 1.3671 mm^2
        Peak Dynamic = 1.4747 W
        Subthreshold Leakage = 0.132526 W
        Gate Leakage = 0.024044 W
        Runtime Dynamic = 1.00793 W

          Int Front End RAT with 0 internal checkpoints:
            Area = 0.025747 mm^2
            Peak Dynamic = 0.0448971 W
            Subthreshold Leakage = 0.000517404 W
            Gate Leakage = 5.24626e-05 W
            Runtime Dynamic = 0.0181292 W

          FP Front End RAT with 0 internal checkpoints:
            Area = 0.184722 mm^2
            Peak Dynamic = 0.263311 W
            Subthreshold Leakage = 0.00161077 W
            Gate Leakage = 0.000106646 W
            Runtime Dynamic = 0.00590108 W

          Free List:
            Area = 0.131231 mm^2
            Peak Dynamic = 0.0314441 W
            Subthreshold Leakage = 0.00215625 W
            Gate Leakage = 0.000122342 W
            Runtime Dynamic = 0.0223595 W

          Int Retire RAT: 
            Area = 0.0783228 mm^2
            Peak Dynamic = 0.0698075 W
            Subthreshold Leakage = 0.000800707 W
            Gate Leakage = 5.66636e-05 W
            Runtime Dynamic = 0.00755439 W

          FP Retire RAT:
            Area = 0.0783228 mm^2
            Peak Dynamic = 0.0698075 W
            Subthreshold Leakage = 0.000800707 W
            Gate Leakage = 5.66636e-05 W
            Runtime Dynamic = 0.00164092 W

          FP Free List:
            Area = 0.480797 mm^2
            Peak Dynamic = 0.0509932 W
            Subthreshold Leakage = 0.00388838 W
            Gate Leakage = 0.000203822 W
            Runtime Dynamic = 0.00790272 W

      Load Store Unit:
        Area = 17.0974 mm^2
        Peak Dynamic = 4.68388 W
        Subthreshold Leakage = 1.70212 W
        Gate Leakage = 0.130464 W
        Runtime Dynamic = 0.753268 W

          Data Cache:
            Area = 13.9853 mm^2
            Peak Dynamic = 4.07813 W
            Subthreshold Leakage = 1.48837 W
            Gate Leakage = 0.100226 W
            Runtime Dynamic = 0.364599 W

          LoadQ:
            Area = 0.655618 mm^2
            Peak Dynamic = 0.206954 W
            Subthreshold Leakage = 0.0493864 W
            Gate Leakage = 0.00361371 W
            Runtime Dynamic = 0.0593128 W

          StoreQ:
            Area = 0.549477 mm^2
            Peak Dynamic = 0.162677 W
            Subthreshold Leakage = 0.0416137 W
            Gate Leakage = 0.00317903 W
            Runtime Dynamic = 0.0932457 W

      Memory Management Unit:
        Area = 2.4345 mm^2
        Peak Dynamic = 1.09659 W
        Subthreshold Leakage = 0.302502 W
        Runtime Dynamic = 0.590278 W

          Itlb:
            Area = 0.544221 mm^2
            Peak Dynamic = 0.144361 W
            Subthreshold Leakage = 0.0754318 W
            Gate Leakage = 0.00460206 W
            Runtime Dynamic = 0 W

          Dtlb:
            Area = 1.50232 mm^2
            Peak Dynamic = 0.361953 W
            Subthreshold Leakage = 0.104318 W
            Gate Leakage = 0.00612156 W
            Runtime Dynamic = 0 W

      Execution Unit:
        Area = 44.4395 mm^2
        Peak Dynamic = 20.8365 W
        Subthreshold Leakage = 8.29209 W
        Runtime Dynamic = 4.18266 W

          Register Files:
            Area = 9.35294 mm^2
            Peak Dynamic = 6.03047 W
            Subthreshold Leakage = 0.108279 W
            Gate Leakage = 0.00649419 W
            Runtime Dynamic = 0.452777 W

              Integer RF:
                Area = 4.67647 mm^2
                Peak Dynamic = 4.8464 W
                Subthreshold Leakage = 0.0541396 W
                Gate Leakage = 0.00324709 W
                Runtime Dynamic = 0.365465 W

              Floating Point RF:
                Area = 4.67647 mm^2
                Peak Dynamic = 1.18407 W
                Subthreshold Leakage = 0.0541396 W
                Gate Leakage = 0.00324709 W
                Runtime Dynamic = 0.0873117 W

          Instruction Scheduler:
            Area = 4.04636 mm^2
            Peak Dynamic = 6.45326 W
            Subthreshold Leakage = 0.138106 W
            Gate Leakage = 0.0102524 W
            Runtime Dynamic = 1.19827 W

              Instruction Window:
                Area = 0.754389 mm^2
                Peak Dynamic = 1.78306 W
                Subthreshold Leakage = 0.025308 W
                Gate Leakage = 0.00198776 W
                Runtime Dynamic = 0.573216 W

              FP Instruction Window:
                Area = 2.16861 mm^2
                Peak Dynamic = 3.33831 W
                Subthreshold Leakage = 0.0974086 W
                Gate Leakage = 0.00729916 W
                Runtime Dynamic = 0.149334 W

              ROB:
                Area = 1.12336 mm^2
                Peak Dynamic = 1.33189 W
                Subthreshold Leakage = 0.015389 W
                Gate Leakage = 0.000965471 W
                Runtime Dynamic = 0.475724 W

          Integer ALUs (Count: 6 ):
            Area = 0.672672 mm^2
            Peak Dynamic = 1.94142 W
            Subthreshold Leakage = 0.599188 W
            Gate Leakage = 0.0454759 W
            Runtime Dynamic = 0.483501 W

          Floating Point Units (FPUs) (Count: 6 ):
            Area = 29.1588 mm^2
            Peak Dynamic = 1.74728 W
            Subthreshold Leakage = 6.49334 W
            Gate Leakage = 0.492818 W
            Runtime Dynamic = 0.609137 W

          Complex ALUs (Mul/Div) (Count: 2 ):
            Area = 0.672672 mm^2
            Peak Dynamic = 0.432163 W
            Subthreshold Leakage = 0.599188 W
            Gate Leakage = 0.0454759 W
            Runtime Dynamic = 0.272272 W

          Results Broadcast Bus:
            Area Overhead = 0.148165 mm^2
            Peak Dynamic = 3.28749 W
            Subthreshold Leakage = 0.231229 W
            Gate Leakage = 0.0175493 W
            Runtime Dynamic = 0.222256 W

*****************************************************************************************
L2
      Area = 13.4536 mm^2
      Peak Dynamic = 2.63666 W
      Subthreshold Leakage = 0.875281 W
      Gate Leakage = 0.0338801 W
      Runtime Dynamic = 0.00121364 W

*****************************************************************************************
BUSES
      Area = 0.734976 mm^2
      Peak Dynamic = 3.44864 W
      Subthreshold Leakage = 0.0671396 W
      Gate Leakage = 0.00752672 W
      Runtime Dynamic = 0.149342 W

      Bus: 
        Area = 0.734976 mm^2
        Peak Dynamic = 3.44864 W
        Subthreshold Leakage = 0.0671396 W
        Gate Leakage = 0.00752672 W
        Runtime Dynamic = 0.149342 W

*****************************************************************************************
