McPAT (version 1.3 of Feb, 2015) is computing the target processor...
 

McPAT (version 1.3 of Feb, 2015) results  (current print level is 5)
*****************************************************************************************
  Technology 65 nm
  Using Long Channel Devices When Appropriate
  Interconnect metal projection= aggressive interconnect technology projection
  Core clock Rate(MHz) 2000

*****************************************************************************************
Processor: 
  Area = 108.738 mm^2
  Peak Power = 95.8463 W
  Total Leakage = 17.7731 W
  Peak Dynamic = 78.0732 W
  Subthreshold Leakage = 16.4562 W
  Gate Leakage = 1.31694 W
  Runtime Dynamic = 15.7236 W

  Total Cores: 1 cores 
  Device Type= ITRS high performance device type
    Area = 99.0259 mm^2
    Peak Dynamic = 69.3145 W
    Subthreshold Leakage = 15.7707 W
    Gate Leakage = 1.27812 W
    Runtime Dynamic = 15.4372 W

  Total L2s: 
  Device Type= ITRS high performance device type
    Area = 8.93442 mm^2
    Peak Dynamic = 3.54524 W
    Subthreshold Leakage = 0.614388 W
    Gate Leakage = 0.0308482 W
    Runtime Dynamic = 0.0114938 W

  Total NoCs (Network/Bus): 
  Device Type= ITRS high performance device type
    Area = 0.777768 mm^2
    Peak Dynamic = 5.21347 W
    Subthreshold Leakage = 0.0710486 W
    Gate Leakage = 0.00796494 W
    Runtime Dynamic = 0.274848 W

*****************************************************************************************
Core:
      Area = 99.0259 mm^2
      Peak Dynamic = 69.3145 W
      Subthreshold Leakage = 15.7707 W
      Gate Leakage = 1.27812 W
      Runtime Dynamic = 15.4372 W

      Instruction Fetch Unit:
        Area = 10.8661 mm^2
        Peak Dynamic = 9.53513 W
        Subthreshold Leakage = 1.29022 W
        Gate Leakage = 0.10329 W
        Runtime Dynamic = 2.214 W

          Instruction Cache:
            Area = 3.22286 mm^2
            Peak Dynamic = 1.49861 W
            Subthreshold Leakage = 0.353467 W
            Gate Leakage = 0.0257461 W
            Runtime Dynamic = 0.104046 W

          Branch Target Buffer:
            Area = 2.7845 mm^2
            Peak Dynamic = 0.561397 W
            Subthreshold Leakage = 0.0786345 W
            Gate Leakage = 0.00322936 W
            Runtime Dynamic = 0.0276191 W

          Branch Predictor:
            Area = 0.262376 mm^2
            Peak Dynamic = 0.142843 W
            Subthreshold Leakage = 0.00429158 W
            Gate Leakage = 0.000362551 W
            Runtime Dynamic = 0.00241142 W

              Global Predictor:
                Area = 0.0322074 mm^2
                Peak Dynamic = 0.00917876 W
                Subthreshold Leakage = 0.00053943 W
                Gate Leakage = 5.41145e-05 W
                Runtime Dynamic = 0.000411778 W

              Local Predictor:
              L1_Local Predictor:
                Area = 0.0322074 mm^2
                Peak Dynamic = 0.00917876 W
                Subthreshold Leakage = 0.00053943 W
                Gate Leakage = 5.41145e-05 W
                Runtime Dynamic = 0.000411778 W

              L2_Local Predictor:
                Area = 0.0322074 mm^2
                Peak Dynamic = 0.00917876 W
                Subthreshold Leakage = 0.00053943 W
                Gate Leakage = 5.41145e-05 W
                Runtime Dynamic = 0.000411778 W

              Chooser:
                Area = 0.0322074 mm^2
                Peak Dynamic = 0.00917876 W
                Subthreshold Leakage = 0.00053943 W
                Gate Leakage = 5.41145e-05 W
                Runtime Dynamic = 0.000411778 W

              RAS:
                Area = 0.133546 mm^2
                Peak Dynamic = 0.106128 W
                Subthreshold Leakage = 0.00213386 W
                Gate Leakage = 0.000146093 W
                Runtime Dynamic = 0.000764305 W

          Instruction Buffer:
            Area = 0.134881 mm^2
            Peak Dynamic = 5.49197 W
            Subthreshold Leakage = 0.00888299 W
            Gate Leakage = 0.000460212 W
            Runtime Dynamic = 0.909625 W

          Instruction Decoder:
            Area = 3.87654 mm^2
            Peak Dynamic = 1.3317 W
            Subthreshold Leakage = 0.659852 W
            Gate Leakage = 0.0381395 W
            Runtime Dynamic = 0.661701 W

      Renaming Unit:
        Area = 2.73917 mm^2
        Peak Dynamic = 5.31908 W
        Subthreshold Leakage = 0.199816 W
        Gate Leakage = 0.0361832 W
        Runtime Dynamic = 2.33771 W

          Int Front End RAT with 0 internal checkpoints:
            Area = 0.0546296 mm^2
            Peak Dynamic = 0.593419 W
            Subthreshold Leakage = 0.00072753 W
            Gate Leakage = 5.33898e-05 W
            Runtime Dynamic = 0.16438 W

          FP Front End RAT with 0 internal checkpoints:
            Area = 0.390059 mm^2
            Peak Dynamic = 1.98641 W
            Subthreshold Leakage = 0.00248417 W
            Gate Leakage = 0.000162095 W
            Runtime Dynamic = 0.0358211 W

          Free List:
            Area = 0.33559 mm^2
            Peak Dynamic = 0.115706 W
            Subthreshold Leakage = 0.00312138 W
            Gate Leakage = 0.000159407 W
            Runtime Dynamic = 0.0607822 W

          Int Retire RAT: 
            Area = 0.167447 mm^2
            Peak Dynamic = 0.2033 W
            Subthreshold Leakage = 0.0013944 W
            Gate Leakage = 8.91613e-05 W
            Runtime Dynamic = 0.0198433 W

          FP Retire RAT:
            Area = 0.167447 mm^2
            Peak Dynamic = 0.2033 W
            Subthreshold Leakage = 0.0013944 W
            Gate Leakage = 8.91613e-05 W
            Runtime Dynamic = 0.00385093 W

          FP Free List:
            Area = 1.03902 mm^2
            Peak Dynamic = 0.182551 W
            Subthreshold Leakage = 0.00560401 W
            Gate Leakage = 0.000278072 W
            Runtime Dynamic = 0.0186382 W

      Load Store Unit:
        Area = 15.0277 mm^2
        Peak Dynamic = 6.57051 W
        Subthreshold Leakage = 1.54606 W
        Gate Leakage = 0.135729 W
        Runtime Dynamic = 1.29519 W

          Data Cache:
            Area = 11.9681 mm^2
            Peak Dynamic = 5.56804 W
            Subthreshold Leakage = 1.27427 W
            Gate Leakage = 0.093823 W
            Runtime Dynamic = 0.476998 W

          LoadQ:
            Area = 0.563883 mm^2
            Peak Dynamic = 0.239687 W
            Subthreshold Leakage = 0.0424807 W
            Gate Leakage = 0.00322446 W
            Runtime Dynamic = 0.0991956 W

          StoreQ:
            Area = 0.597754 mm^2
            Peak Dynamic = 0.254191 W
            Subthreshold Leakage = 0.0442184 W
            Gate Leakage = 0.00332956 W
            Runtime Dynamic = 0.210396 W

      Memory Management Unit:
        Area = 2.63153 mm^2
        Peak Dynamic = 1.9948 W
        Subthreshold Leakage = 0.36484 W
        Runtime Dynamic = 1.27149 W

          Itlb:
            Area = 0.544221 mm^2
            Peak Dynamic = 0.20623 W
            Subthreshold Leakage = 0.0754318 W
            Gate Leakage = 0.00460206 W
            Runtime Dynamic = 0 W

          Dtlb:
            Area = 1.50232 mm^2
            Peak Dynamic = 0.517076 W
            Subthreshold Leakage = 0.104318 W
            Gate Leakage = 0.00612156 W
            Runtime Dynamic = 0 W

      Execution Unit:
        Area = 59.2952 mm^2
        Peak Dynamic = 45.895 W
        Subthreshold Leakage = 8.59914 W
        Runtime Dynamic = 8.31883 W

          Register Files:
            Area = 19.9578 mm^2
            Peak Dynamic = 18.2765 W
            Subthreshold Leakage = 0.194556 W
            Gate Leakage = 0.0123226 W
            Runtime Dynamic = 1.1839 W

              Integer RF:
                Area = 9.9789 mm^2
                Peak Dynamic = 14.763 W
                Subthreshold Leakage = 0.097278 W
                Gate Leakage = 0.00616128 W
                Runtime Dynamic = 0.966085 W

              Floating Point RF:
                Area = 9.9789 mm^2
                Peak Dynamic = 3.51342 W
                Subthreshold Leakage = 0.097278 W
                Gate Leakage = 0.00616128 W
                Runtime Dynamic = 0.217811 W

          Instruction Scheduler:
            Area = 8.08289 mm^2
            Peak Dynamic = 14.5116 W
            Subthreshold Leakage = 0.271914 W
            Gate Leakage = 0.0198066 W
            Runtime Dynamic = 2.72779 W

              Instruction Window:
                Area = 0.847229 mm^2
                Peak Dynamic = 2.12703 W
                Subthreshold Leakage = 0.0386715 W
                Gate Leakage = 0.00300339 W
                Runtime Dynamic = 0.535758 W

              FP Instruction Window:
                Area = 3.20063 mm^2
                Peak Dynamic = 6.12585 W
                Subthreshold Leakage = 0.189118 W
                Gate Leakage = 0.0143978 W
                Runtime Dynamic = 0.242381 W

              ROB:
                Area = 4.03503 mm^2
                Peak Dynamic = 6.25873 W
                Subthreshold Leakage = 0.0441244 W
                Gate Leakage = 0.00240536 W
                Runtime Dynamic = 1.94965 W

          Integer ALUs (Count: 6 ):
            Area = 0.672672 mm^2
            Peak Dynamic = 2.72645 W
            Subthreshold Leakage = 0.599188 W
            Gate Leakage = 0.0454759 W
            Runtime Dynamic = 0.804948 W

          Floating Point Units (FPUs) (Count: 6 ):
            Area = 29.1588 mm^2
            Peak Dynamic = 2.45381 W
            Subthreshold Leakage = 6.49334 W
            Gate Leakage = 0.492818 W
            Runtime Dynamic = 0.81533 W

          Complex ALUs (Mul/Div) (Count: 2 ):
            Area = 0.672672 mm^2
            Peak Dynamic = 0.589168 W
            Subthreshold Leakage = 0.599188 W
            Gate Leakage = 0.0454759 W
            Runtime Dynamic = 0.311359 W

          Results Broadcast Bus:
            Area Overhead = 0.165422 mm^2
            Peak Dynamic = 5.30307 W
            Subthreshold Leakage = 0.25586 W
            Gate Leakage = 0.0194187 W
            Runtime Dynamic = 0.441114 W

*****************************************************************************************
L2
      Area = 8.93442 mm^2
      Peak Dynamic = 3.54524 W
      Subthreshold Leakage = 0.614388 W
      Gate Leakage = 0.0308482 W
      Runtime Dynamic = 0.0114938 W

*****************************************************************************************
BUSES
      Area = 0.777768 mm^2
      Peak Dynamic = 5.21347 W
      Subthreshold Leakage = 0.0710486 W
      Gate Leakage = 0.00796494 W
      Runtime Dynamic = 0.274848 W

      Bus: 
        Area = 0.777768 mm^2
        Peak Dynamic = 5.21347 W
        Subthreshold Leakage = 0.0710486 W
        Gate Leakage = 0.00796494 W
        Runtime Dynamic = 0.274848 W

*****************************************************************************************
