McPAT (version 1.3 of Feb, 2015) is computing the target processor...
 

McPAT (version 1.3 of Feb, 2015) results  (current print level is 5)
*****************************************************************************************
  Technology 65 nm
  Using Long Channel Devices When Appropriate
  Interconnect metal projection= aggressive interconnect technology projection
  Core clock Rate(MHz) 1400

*****************************************************************************************
Processor: 
  Area = 83.0481 mm^2
  Peak Power = 41.4527 W
  Total Leakage = 16.9844 W
  Peak Dynamic = 24.4683 W
  Subthreshold Leakage = 15.8037 W
  Gate Leakage = 1.18079 W
  Runtime Dynamic = 5.08483 W

  Total Cores: 1 cores 
  Device Type= ITRS high performance device type
    Area = 68.9152 mm^2
    Peak Dynamic = 18.644 W
    Subthreshold Leakage = 14.8663 W
    Gate Leakage = 1.13996 W
    Runtime Dynamic = 4.94348 W

  Total L2s: 
  Device Type= ITRS high performance device type
    Area = 13.4536 mm^2
    Peak Dynamic = 2.63666 W
    Subthreshold Leakage = 0.875281 W
    Gate Leakage = 0.0338801 W
    Runtime Dynamic = 0.00336551 W

  Total NoCs (Network/Bus): 
  Device Type= ITRS high performance device type
    Area = 0.679359 mm^2
    Peak Dynamic = 3.18768 W
    Subthreshold Leakage = 0.062059 W
    Gate Leakage = 0.00695716 W
    Runtime Dynamic = 0.137989 W

*****************************************************************************************
Core:
      Area = 68.9152 mm^2
      Peak Dynamic = 18.644 W
      Subthreshold Leakage = 14.8663 W
      Gate Leakage = 1.13996 W
      Runtime Dynamic = 4.94348 W

      Instruction Fetch Unit:
        Area = 7.71353 mm^2
        Peak Dynamic = 2.22014 W
        Subthreshold Leakage = 1.21812 W
        Gate Leakage = 0.0826278 W
        Runtime Dynamic = 0.651471 W

          Instruction Cache:
            Area = 3.22286 mm^2
            Peak Dynamic = 1.04903 W
            Subthreshold Leakage = 0.353467 W
            Gate Leakage = 0.0257461 W
            Runtime Dynamic = 0.0544527 W

          Branch Target Buffer:
            Area = 1.03533 mm^2
            Peak Dynamic = 0.135684 W
            Subthreshold Leakage = 0.0528128 W
            Gate Leakage = 0.00213695 W
            Runtime Dynamic = 0.0107264 W

          Branch Predictor:
            Area = 1.27471 mm^2
            Peak Dynamic = 0.225222 W
            Subthreshold Leakage = 0.0802185 W
            Gate Leakage = 0.00327525 W
            Runtime Dynamic = 0.0124465 W

              Global Predictor:
                Area = 0.442563 mm^2
                Peak Dynamic = 0.067945 W
                Subthreshold Leakage = 0.0280468 W
                Gate Leakage = 0.00110975 W
                Runtime Dynamic = 0.00401167 W

              Local Predictor:
              L1_Local Predictor:
                Area = 0.223592 mm^2
                Peak Dynamic = 0.0403822 W
                Subthreshold Leakage = 0.0152512 W
                Gate Leakage = 0.000630359 W
                Runtime Dynamic = 0.00254848 W

              L2_Local Predictor:
                Area = 0.126814 mm^2
                Peak Dynamic = 0.0261924 W
                Subthreshold Leakage = 0.00791691 W
                Gate Leakage = 0.0003635 W
                Runtime Dynamic = 0.00160709 W

              Chooser:
                Area = 0.442563 mm^2
                Peak Dynamic = 0.067945 W
                Subthreshold Leakage = 0.0280468 W
                Gate Leakage = 0.00110975 W
                Runtime Dynamic = 0.00401167 W

              RAS:
                Area = 0.0391741 mm^2
                Peak Dynamic = 0.022757 W
                Subthreshold Leakage = 0.000956776 W
                Gate Leakage = 6.18858e-05 W
                Runtime Dynamic = 0.000267618 W

          Instruction Buffer:
            Area = 0.0240454 mm^2
            Peak Dynamic = 0.211236 W
            Subthreshold Leakage = 0.00268701 W
            Gate Leakage = 0.000136196 W
            Runtime Dynamic = 0.0814655 W

          Instruction Decoder:
            Area = 1.93827 mm^2
            Peak Dynamic = 0.466095 W
            Subthreshold Leakage = 0.659852 W
            Gate Leakage = 0.0381395 W
            Runtime Dynamic = 0.35951 W

      Renaming Unit:
        Area = 0.562678 mm^2
        Peak Dynamic = 0.782458 W
        Subthreshold Leakage = 0.0754354 W
        Gate Leakage = 0.0136535 W
        Runtime Dynamic = 0.582129 W

          Int Front End RAT with 0 internal checkpoints:
            Area = 0.025747 mm^2
            Peak Dynamic = 0.0448971 W
            Subthreshold Leakage = 0.000517404 W
            Gate Leakage = 5.24626e-05 W
            Runtime Dynamic = 0.0181027 W

          FP Front End RAT with 0 internal checkpoints:
            Area = 0.0546296 mm^2
            Peak Dynamic = 0.106353 W
            Subthreshold Leakage = 0.00072753 W
            Gate Leakage = 5.33898e-05 W
            Runtime Dynamic = 0.00468893 W

          Free List:
            Area = 0.0653613 mm^2
            Peak Dynamic = 0.0245299 W
            Subthreshold Leakage = 0.00173675 W
            Gate Leakage = 0.0001089 W
            Runtime Dynamic = 0.0173849 W

          Int Retire RAT: 
            Area = 0.0322074 mm^2
            Peak Dynamic = 0.0218826 W
            Subthreshold Leakage = 0.00053943 W
            Gate Leakage = 5.41145e-05 W
            Runtime Dynamic = 0.00461582 W

          FP Retire RAT:
            Area = 0.0322074 mm^2
            Peak Dynamic = 0.0218826 W
            Subthreshold Leakage = 0.00053943 W
            Gate Leakage = 5.41145e-05 W
            Runtime Dynamic = 0.00100352 W

          FP Free List:
            Area = 0.134204 mm^2
            Peak Dynamic = 0.0314308 W
            Subthreshold Leakage = 0.00229689 W
            Gate Leakage = 0.00013679 W
            Runtime Dynamic = 0.00485198 W

      Load Store Unit:
        Area = 15.4486 mm^2
        Peak Dynamic = 4.42007 W
        Subthreshold Leakage = 1.49926 W
        Gate Leakage = 0.115566 W
        Runtime Dynamic = 0.564655 W

          Data Cache:
            Area = 12.7324 mm^2
            Peak Dynamic = 3.95674 W
            Subthreshold Leakage = 1.34608 W
            Gate Leakage = 0.0959683 W
            Runtime Dynamic = 0.289175 W

          LoadQ:
            Area = 0.549477 mm^2
            Peak Dynamic = 0.162677 W
            Subthreshold Leakage = 0.0416137 W
            Gate Leakage = 0.00317903 W
            Runtime Dynamic = 0.0465625 W

          StoreQ:
            Area = 0.563883 mm^2
            Peak Dynamic = 0.167781 W
            Subthreshold Leakage = 0.0424807 W
            Gate Leakage = 0.00322446 W
            Runtime Dynamic = 0.0960472 W

      Memory Management Unit:
        Area = 2.26487 mm^2
        Peak Dynamic = 0.83849 W
        Subthreshold Leakage = 0.248828 W
        Runtime Dynamic = 0.332176 W

          Itlb:
            Area = 0.544221 mm^2
            Peak Dynamic = 0.144361 W
            Subthreshold Leakage = 0.0754318 W
            Gate Leakage = 0.00460206 W
            Runtime Dynamic = 0 W

          Dtlb:
            Area = 1.50232 mm^2
            Peak Dynamic = 0.361953 W
            Subthreshold Leakage = 0.104318 W
            Gate Leakage = 0.00612156 W
            Runtime Dynamic = 0 W

      Execution Unit:
        Area = 34.4593 mm^2
        Peak Dynamic = 10.3828 W
        Subthreshold Leakage = 8.05402 W
        Runtime Dynamic = 2.81305 W

          Register Files:
            Area = 2.71919 mm^2
            Peak Dynamic = 1.77649 W
            Subthreshold Leakage = 0.0475276 W
            Gate Leakage = 0.00260308 W
            Runtime Dynamic = 0.256262 W

              Integer RF:
                Area = 1.3596 mm^2
                Peak Dynamic = 1.4069 W
                Subthreshold Leakage = 0.0237638 W
                Gate Leakage = 0.00130154 W
                Runtime Dynamic = 0.206826 W

              Floating Point RF:
                Area = 1.3596 mm^2
                Peak Dynamic = 0.369591 W
                Subthreshold Leakage = 0.0237638 W
                Gate Leakage = 0.00130154 W
                Runtime Dynamic = 0.049436 W

          Instruction Scheduler:
            Area = 0.887421 mm^2
            Peak Dynamic = 1.10962 W
            Subthreshold Leakage = 0.0398002 W
            Gate Leakage = 0.00282172 W
            Runtime Dynamic = 0.471967 W

              Instruction Window:
                Area = 0.114037 mm^2
                Peak Dynamic = 0.163208 W
                Subthreshold Leakage = 0.00583336 W
                Gate Leakage = 0.000467089 W
                Runtime Dynamic = 0.0838808 W

              FP Instruction Window:
                Area = 0.348389 mm^2
                Peak Dynamic = 0.463667 W
                Subthreshold Leakage = 0.0235035 W
                Gate Leakage = 0.00180702 W
                Runtime Dynamic = 0.0464426 W

              ROB:
                Area = 0.424996 mm^2
                Peak Dynamic = 0.482748 W
                Subthreshold Leakage = 0.0104634 W
                Gate Leakage = 0.00054761 W
                Runtime Dynamic = 0.341644 W

          Integer ALUs (Count: 6 ):
            Area = 0.672672 mm^2
            Peak Dynamic = 1.94142 W
            Subthreshold Leakage = 0.599188 W
            Gate Leakage = 0.0454759 W
            Runtime Dynamic = 0.482947 W

          Floating Point Units (FPUs) (Count: 6 ):
            Area = 29.1588 mm^2
            Peak Dynamic = 1.74728 W
            Subthreshold Leakage = 6.49334 W
            Gate Leakage = 0.492818 W
            Runtime Dynamic = 0.608956 W

          Complex ALUs (Mul/Div) (Count: 2 ):
            Area = 0.672672 mm^2
            Peak Dynamic = 0.432163 W
            Subthreshold Leakage = 0.599188 W
            Gate Leakage = 0.0454759 W
            Runtime Dynamic = 0.272252 W

          Results Broadcast Bus:
            Area Overhead = 0.130273 mm^2
            Peak Dynamic = 2.84434 W
            Subthreshold Leakage = 0.205897 W
            Gate Leakage = 0.0156267 W
            Runtime Dynamic = 0.189181 W

*****************************************************************************************
L2
      Area = 13.4536 mm^2
      Peak Dynamic = 2.63666 W
      Subthreshold Leakage = 0.875281 W
      Gate Leakage = 0.0338801 W
      Runtime Dynamic = 0.00336551 W

*****************************************************************************************
BUSES
      Area = 0.679359 mm^2
      Peak Dynamic = 3.18768 W
      Subthreshold Leakage = 0.062059 W
      Gate Leakage = 0.00695716 W
      Runtime Dynamic = 0.137989 W

      Bus: 
        Area = 0.679359 mm^2
        Peak Dynamic = 3.18768 W
        Subthreshold Leakage = 0.062059 W
        Gate Leakage = 0.00695716 W
        Runtime Dynamic = 0.137989 W

*****************************************************************************************
