McPAT (version 1.3 of Feb, 2015) is computing the target processor...
 

McPAT (version 1.3 of Feb, 2015) results  (current print level is 5)
*****************************************************************************************
  Technology 65 nm
  Using Long Channel Devices When Appropriate
  Interconnect metal projection= aggressive interconnect technology projection
  Core clock Rate(MHz) 3194

*****************************************************************************************
Processor: 
  Area = 83.9981 mm^2
  Peak Power = 68.2468 W
  Total Leakage = 17.3886 W
  Peak Dynamic = 50.8582 W
  Subthreshold Leakage = 16.2265 W
  Gate Leakage = 1.16212 W
  Runtime Dynamic = 8.12667 W

  Total Cores: 1 cores 
  Device Type= ITRS high performance device type
    Area = 65.4192 mm^2
    Peak Dynamic = 36.5968 W
    Subthreshold Leakage = 14.7456 W
    Gate Leakage = 1.115 W
    Runtime Dynamic = 7.81194 W

  Total L2s: 
  Device Type= ITRS high performance device type
    Area = 17.8956 mm^2
    Peak Dynamic = 6.94723 W
    Subthreshold Leakage = 1.41855 W
    Gate Leakage = 0.0401246 W
    Runtime Dynamic = 0.0592905 W

  Total NoCs (Network/Bus): 
  Device Type= ITRS high performance device type
    Area = 0.68325 mm^2
    Peak Dynamic = 7.31411 W
    Subthreshold Leakage = 0.0624144 W
    Gate Leakage = 0.006997 W
    Runtime Dynamic = 0.255441 W

*****************************************************************************************
Core:
      Area = 65.4192 mm^2
      Peak Dynamic = 36.5968 W
      Subthreshold Leakage = 14.7456 W
      Gate Leakage = 1.115 W
      Runtime Dynamic = 7.81194 W

      Instruction Fetch Unit:
        Area = 7.6432 mm^2
        Peak Dynamic = 4.23208 W
        Subthreshold Leakage = 1.33429 W
        Gate Leakage = 0.0824852 W
        Runtime Dynamic = 1.03446 W

          Instruction Cache:
            Area = 4.44346 mm^2
            Peak Dynamic = 2.5017 W
            Subthreshold Leakage = 0.574222 W
            Gate Leakage = 0.0335599 W
            Runtime Dynamic = 0.110065 W

          Branch Target Buffer:
            Area = 1.03533 mm^2
            Peak Dynamic = 0.309554 W
            Subthreshold Leakage = 0.0528128 W
            Gate Leakage = 0.00213695 W
            Runtime Dynamic = 0.0178284 W

          Branch Predictor:
            Area = 0.0790153 mm^2
            Peak Dynamic = 0.0728156 W
            Subthreshold Leakage = 0.00244456 W
            Gate Leakage = 0.000214529 W
            Runtime Dynamic = 0.00167 W

              Global Predictor:
                Area = 0.0099603 mm^2
                Peak Dynamic = 0.00522428 W
                Subthreshold Leakage = 0.000371946 W
                Gate Leakage = 3.81607e-05 W
                Runtime Dynamic = 0.000294354 W

              Local Predictor:
              L1_Local Predictor:
                Area = 0.0099603 mm^2
                Peak Dynamic = 0.00522428 W
                Subthreshold Leakage = 0.000371946 W
                Gate Leakage = 3.81607e-05 W
                Runtime Dynamic = 0.000294354 W

              L2_Local Predictor:
                Area = 0.0099603 mm^2
                Peak Dynamic = 0.00522428 W
                Subthreshold Leakage = 0.000371946 W
                Gate Leakage = 3.81607e-05 W
                Runtime Dynamic = 0.000294354 W

              Chooser:
                Area = 0.0099603 mm^2
                Peak Dynamic = 0.00522428 W
                Subthreshold Leakage = 0.000371946 W
                Gate Leakage = 3.81607e-05 W
                Runtime Dynamic = 0.000294354 W

              RAS:
                Area = 0.0391741 mm^2
                Peak Dynamic = 0.0519184 W
                Subthreshold Leakage = 0.000956776 W
                Gate Leakage = 6.18858e-05 W
                Runtime Dynamic = 0.000492586 W

          Instruction Buffer:
            Area = 0.00867221 mm^2
            Peak Dynamic = 0.092413 W
            Subthreshold Leakage = 0.00114838 W
            Gate Leakage = 6.74413e-05 W
            Runtime Dynamic = 0.0569827 W

          Instruction Decoder:
            Area = 1.93827 mm^2
            Peak Dynamic = 1.06336 W
            Subthreshold Leakage = 0.659852 W
            Gate Leakage = 0.0381395 W
            Runtime Dynamic = 0.655679 W

      Renaming Unit:
        Area = 0.807529 mm^2
        Peak Dynamic = 1.4907 W
        Subthreshold Leakage = 0.0517316 W
        Gate Leakage = 0.00886777 W
        Runtime Dynamic = 0.892001 W

          Int Front End RAT with 0 internal checkpoints:
            Area = 0.025747 mm^2
            Peak Dynamic = 0.10243 W
            Subthreshold Leakage = 0.000517404 W
            Gate Leakage = 5.24626e-05 W
            Runtime Dynamic = 0.0335805 W

          FP Front End RAT with 0 internal checkpoints:
            Area = 0.025747 mm^2
            Peak Dynamic = 0.10243 W
            Subthreshold Leakage = 0.000517404 W
            Gate Leakage = 5.24626e-05 W
            Runtime Dynamic = 0.00731791 W

          Free List:
            Area = 0.22009 mm^2
            Peak Dynamic = 0.0869439 W
            Subthreshold Leakage = 0.00256247 W
            Gate Leakage = 0.000134376 W
            Runtime Dynamic = 0.0504313 W

          Int Retire RAT: 
            Area = 0.167447 mm^2
            Peak Dynamic = 0.32467 W
            Subthreshold Leakage = 0.0013944 W
            Gate Leakage = 8.91613e-05 W
            Runtime Dynamic = 0.019477 W

          FP Retire RAT:
            Area = 0.0099603 mm^2
            Peak Dynamic = 0.0183579 W
            Subthreshold Leakage = 0.000371946 W
            Gate Leakage = 3.81607e-05 W
            Runtime Dynamic = 0.00127865 W

          FP Free List:
            Area = 0.22009 mm^2
            Peak Dynamic = 0.0869439 W
            Subthreshold Leakage = 0.00256247 W
            Gate Leakage = 0.000134376 W
            Runtime Dynamic = 0.0109901 W

      Load Store Unit:
        Area = 14.2507 mm^2
        Peak Dynamic = 9.89014 W
        Subthreshold Leakage = 1.37396 W
        Gate Leakage = 0.107925 W
        Runtime Dynamic = 1.15275 W

          Data Cache:
            Area = 11.6098 mm^2
            Peak Dynamic = 8.84298 W
            Subthreshold Leakage = 1.23828 W
            Gate Leakage = 0.0927196 W
            Runtime Dynamic = 0.659654 W

          LoadQ:
            Area = 0.563883 mm^2
            Peak Dynamic = 0.382781 W
            Subthreshold Leakage = 0.0424807 W
            Gate Leakage = 0.00322446 W
            Runtime Dynamic = 0.0867796 W

          StoreQ:
            Area = 0.655618 mm^2
            Peak Dynamic = 0.472152 W
            Subthreshold Leakage = 0.0493864 W
            Gate Leakage = 0.00361371 W
            Runtime Dynamic = 0.214081 W

      Memory Management Unit:
        Area = 2.18499 mm^2
        Peak Dynamic = 1.6357 W
        Subthreshold Leakage = 0.223555 W
        Runtime Dynamic = 0.480579 W

          Itlb:
            Area = 0.544221 mm^2
            Peak Dynamic = 0.329349 W
            Subthreshold Leakage = 0.0754318 W
            Gate Leakage = 0.00460206 W
            Runtime Dynamic = 0 W

          Dtlb:
            Area = 1.50232 mm^2
            Peak Dynamic = 0.82577 W
            Subthreshold Leakage = 0.104318 W
            Gate Leakage = 0.00612156 W
            Runtime Dynamic = 0 W

      Execution Unit:
        Area = 32.0667 mm^2
        Peak Dynamic = 19.3482 W
        Subthreshold Leakage = 7.99137 W
        Runtime Dynamic = 4.25216 W

          Register Files:
            Area = 0.863237 mm^2
            Peak Dynamic = 1.12041 W
            Subthreshold Leakage = 0.0251501 W
            Gate Leakage = 0.001176 W
            Runtime Dynamic = 0.257761 W

              Integer RF:
                Area = 0.431618 mm^2
                Peak Dynamic = 0.876744 W
                Subthreshold Leakage = 0.0125751 W
                Gate Leakage = 0.000588002 W
                Runtime Dynamic = 0.206289 W

              Floating Point RF:
                Area = 0.431618 mm^2
                Peak Dynamic = 0.243664 W
                Subthreshold Leakage = 0.0125751 W
                Gate Leakage = 0.000588002 W
                Runtime Dynamic = 0.0514723 W

          Instruction Scheduler:
            Area = 0.432155 mm^2
            Peak Dynamic = 2.00002 W
            Subthreshold Leakage = 0.0271508 W
            Gate Leakage = 0.00169446 W
            Runtime Dynamic = 0.932121 W

              Instruction Window:
                Area = 0.060737 mm^2
                Peak Dynamic = 0.294328 W
                Subthreshold Leakage = 0.00441295 W
                Gate Leakage = 0.000357946 W
                Runtime Dynamic = 0.270332 W

              FP Instruction Window:
                Area = 0.159975 mm^2
                Peak Dynamic = 0.557529 W
                Subthreshold Leakage = 0.0111713 W
                Gate Leakage = 0.000824553 W
                Runtime Dynamic = 0.0815487 W

              ROB:
                Area = 0.211444 mm^2
                Peak Dynamic = 1.14816 W
                Subthreshold Leakage = 0.0115665 W
                Gate Leakage = 0.000511965 W
                Runtime Dynamic = 0.58024 W

          Integer ALUs (Count: 6 ):
            Area = 0.672672 mm^2
            Peak Dynamic = 4.28866 W
            Subthreshold Leakage = 0.599188 W
            Gate Leakage = 0.0454759 W
            Runtime Dynamic = 0.788724 W

          Floating Point Units (FPUs) (Count: 6 ):
            Area = 29.1588 mm^2
            Peak Dynamic = 3.85979 W
            Subthreshold Leakage = 6.49334 W
            Gate Leakage = 0.492818 W
            Runtime Dynamic = 0.844121 W

          Complex ALUs (Mul/Div) (Count: 2 ):
            Area = 0.672672 mm^2
            Peak Dynamic = 0.901609 W
            Subthreshold Leakage = 0.599188 W
            Gate Leakage = 0.0454759 W
            Runtime Dynamic = 0.316689 W

          Results Broadcast Bus:
            Area Overhead = 0.128745 mm^2
            Peak Dynamic = 6.40882 W
            Subthreshold Leakage = 0.203542 W
            Gate Leakage = 0.015448 W
            Runtime Dynamic = 0.343814 W

*****************************************************************************************
L2
      Area = 17.8956 mm^2
      Peak Dynamic = 6.94723 W
      Subthreshold Leakage = 1.41855 W
      Gate Leakage = 0.0401246 W
      Runtime Dynamic = 0.0592905 W

*****************************************************************************************
BUSES
      Area = 0.68325 mm^2
      Peak Dynamic = 7.31411 W
      Subthreshold Leakage = 0.0624144 W
      Gate Leakage = 0.006997 W
      Runtime Dynamic = 0.255441 W

      Bus: 
        Area = 0.68325 mm^2
        Peak Dynamic = 7.31411 W
        Subthreshold Leakage = 0.0624144 W
        Gate Leakage = 0.006997 W
        Runtime Dynamic = 0.255441 W

*****************************************************************************************
