McPAT (version 1.3 of Feb, 2015) is computing the target processor...
 

McPAT (version 1.3 of Feb, 2015) results  (current print level is 5)
*****************************************************************************************
  Technology 65 nm
  Using Long Channel Devices When Appropriate
  Interconnect metal projection= aggressive interconnect technology projection
  Core clock Rate(MHz) 2000

*****************************************************************************************
Processor: 
  Area = 119.002 mm^2
  Peak Power = 74.0223 W
  Total Leakage = 19.1109 W
  Peak Dynamic = 54.9114 W
  Subthreshold Leakage = 17.8489 W
  Gate Leakage = 1.26199 W
  Runtime Dynamic = 11.3245 W

  Total Cores: 1 cores 
  Device Type= ITRS high performance device type
    Area = 83.9434 mm^2
    Peak Dynamic = 44.6961 W
    Subthreshold Leakage = 15.4252 W
    Gate Leakage = 1.2039 W
    Runtime Dynamic = 11.0402 W

  Total L2s: 
  Device Type= ITRS high performance device type
    Area = 34.2451 mm^2
    Peak Dynamic = 4.76051 W
    Subthreshold Leakage = 2.3493 W
    Gate Leakage = 0.0497633 W
    Runtime Dynamic = 0.00541734 W

  Total NoCs (Network/Bus): 
  Device Type= ITRS high performance device type
    Area = 0.813778 mm^2
    Peak Dynamic = 5.45485 W
    Subthreshold Leakage = 0.0743381 W
    Gate Leakage = 0.00833371 W
    Runtime Dynamic = 0.278856 W

*****************************************************************************************
Core:
      Area = 83.9434 mm^2
      Peak Dynamic = 44.6961 W
      Subthreshold Leakage = 15.4252 W
      Gate Leakage = 1.2039 W
      Runtime Dynamic = 11.0402 W

      Instruction Fetch Unit:
        Area = 10.7548 mm^2
        Peak Dynamic = 5.68941 W
        Subthreshold Leakage = 1.25225 W
        Gate Leakage = 0.0915099 W
        Runtime Dynamic = 1.46533 W

          Instruction Cache:
            Area = 3.387 mm^2
            Peak Dynamic = 1.50829 W
            Subthreshold Leakage = 0.385273 W
            Gate Leakage = 0.026836 W
            Runtime Dynamic = 0.0809768 W

          Branch Target Buffer:
            Area = 2.7845 mm^2
            Peak Dynamic = 0.561397 W
            Subthreshold Leakage = 0.0786345 W
            Gate Leakage = 0.00322936 W
            Runtime Dynamic = 0.0233493 W

          Branch Predictor:
            Area = 0.262376 mm^2
            Peak Dynamic = 0.142843 W
            Subthreshold Leakage = 0.00429158 W
            Gate Leakage = 0.000362551 W
            Runtime Dynamic = 0.0022049 W

              Global Predictor:
                Area = 0.0322074 mm^2
                Peak Dynamic = 0.00917876 W
                Subthreshold Leakage = 0.00053943 W
                Gate Leakage = 5.41145e-05 W
                Runtime Dynamic = 0.000365939 W

              Local Predictor:
              L1_Local Predictor:
                Area = 0.0322074 mm^2
                Peak Dynamic = 0.00917876 W
                Subthreshold Leakage = 0.00053943 W
                Gate Leakage = 5.41145e-05 W
                Runtime Dynamic = 0.000365939 W

              L2_Local Predictor:
                Area = 0.0322074 mm^2
                Peak Dynamic = 0.00917876 W
                Subthreshold Leakage = 0.00053943 W
                Gate Leakage = 5.41145e-05 W
                Runtime Dynamic = 0.000365939 W

              Chooser:
                Area = 0.0322074 mm^2
                Peak Dynamic = 0.00917876 W
                Subthreshold Leakage = 0.00053943 W
                Gate Leakage = 5.41145e-05 W
                Runtime Dynamic = 0.000365939 W

              RAS:
                Area = 0.133546 mm^2
                Peak Dynamic = 0.106128 W
                Subthreshold Leakage = 0.00213386 W
                Gate Leakage = 0.000146093 W
                Runtime Dynamic = 0.000741138 W

          Instruction Buffer:
            Area = 0.0693751 mm^2
            Peak Dynamic = 1.81913 W
            Subthreshold Leakage = 0.00553477 W
            Gate Leakage = 0.000278614 W
            Runtime Dynamic = 0.419114 W

          Instruction Decoder:
            Area = 3.87654 mm^2
            Peak Dynamic = 1.3317 W
            Subthreshold Leakage = 0.659852 W
            Gate Leakage = 0.0381395 W
            Runtime Dynamic = 0.61363 W

      Renaming Unit:
        Area = 1.20388 mm^2
        Peak Dynamic = 3.48493 W
        Subthreshold Leakage = 0.128097 W
        Gate Leakage = 0.0232642 W
        Runtime Dynamic = 1.54363 W

          Int Front End RAT with 0 internal checkpoints:
            Area = 0.0546296 mm^2
            Peak Dynamic = 0.593419 W
            Subthreshold Leakage = 0.00072753 W
            Gate Leakage = 5.33898e-05 W
            Runtime Dynamic = 0.146236 W

          FP Front End RAT with 0 internal checkpoints:
            Area = 0.184722 mm^2
            Peak Dynamic = 1.25913 W
            Subthreshold Leakage = 0.00161077 W
            Gate Leakage = 0.000106646 W
            Runtime Dynamic = 0.0328501 W

          Free List:
            Area = 0.134204 mm^2
            Peak Dynamic = 0.0815365 W
            Subthreshold Leakage = 0.00229689 W
            Gate Leakage = 0.00013679 W
            Runtime Dynamic = 0.0382492 W

          Int Retire RAT: 
            Area = 0.0322074 mm^2
            Peak Dynamic = 0.0312608 W
            Subthreshold Leakage = 0.00053943 W
            Gate Leakage = 5.41145e-05 W
            Runtime Dynamic = 0.00788767 W

          FP Retire RAT:
            Area = 0.0783228 mm^2
            Peak Dynamic = 0.099725 W
            Subthreshold Leakage = 0.000800707 W
            Gate Leakage = 5.66636e-05 W
            Runtime Dynamic = 0.00271843 W

          FP Free List:
            Area = 0.344767 mm^2
            Peak Dynamic = 0.115629 W
            Subthreshold Leakage = 0.00346175 W
            Gate Leakage = 0.000192786 W
            Runtime Dynamic = 0.0114566 W

      Load Store Unit:
        Area = 17.0209 mm^2
        Peak Dynamic = 6.63855 W
        Subthreshold Leakage = 1.69286 W
        Gate Leakage = 0.129398 W
        Runtime Dynamic = 1.19315 W

          Data Cache:
            Area = 13.9853 mm^2
            Peak Dynamic = 5.82591 W
            Subthreshold Leakage = 1.48837 W
            Gate Leakage = 0.100226 W
            Runtime Dynamic = 0.616404 W

          LoadQ:
            Area = 0.597754 mm^2
            Peak Dynamic = 0.254191 W
            Subthreshold Leakage = 0.0442184 W
            Gate Leakage = 0.00332956 W
            Runtime Dynamic = 0.088628 W

          StoreQ:
            Area = 0.549477 mm^2
            Peak Dynamic = 0.232395 W
            Subthreshold Leakage = 0.0416137 W
            Gate Leakage = 0.00317903 W
            Runtime Dynamic = 0.162057 W

      Memory Management Unit:
        Area = 2.42157 mm^2
        Peak Dynamic = 1.53845 W
        Subthreshold Leakage = 0.29841 W
        Runtime Dynamic = 0.815145 W

          Itlb:
            Area = 0.544221 mm^2
            Peak Dynamic = 0.20623 W
            Subthreshold Leakage = 0.0754318 W
            Gate Leakage = 0.00460206 W
            Runtime Dynamic = 0 W

          Dtlb:
            Area = 1.50232 mm^2
            Peak Dynamic = 0.517076 W
            Subthreshold Leakage = 0.104318 W
            Gate Leakage = 0.00612156 W
            Runtime Dynamic = 0 W

      Execution Unit:
        Area = 44.0761 mm^2
        Peak Dynamic = 27.3447 W
        Subthreshold Leakage = 8.28297 W
        Runtime Dynamic = 6.02294 W

          Register Files:
            Area = 9.35294 mm^2
            Peak Dynamic = 8.61495 W
            Subthreshold Leakage = 0.108279 W
            Gate Leakage = 0.00649419 W
            Runtime Dynamic = 0.769812 W

              Integer RF:
                Area = 4.67647 mm^2
                Peak Dynamic = 6.92342 W
                Subthreshold Leakage = 0.0541396 W
                Gate Leakage = 0.00324709 W
                Runtime Dynamic = 0.622708 W

              Floating Point RF:
                Area = 4.67647 mm^2
                Peak Dynamic = 1.69153 W
                Subthreshold Leakage = 0.0541396 W
                Gate Leakage = 0.00324709 W
                Runtime Dynamic = 0.147105 W

          Instruction Scheduler:
            Area = 3.69628 mm^2
            Peak Dynamic = 6.97643 W
            Subthreshold Leakage = 0.133582 W
            Gate Leakage = 0.00972156 W
            Runtime Dynamic = 1.71815 W

              Instruction Window:
                Area = 0.497673 mm^2
                Peak Dynamic = 1.50883 W
                Subthreshold Leakage = 0.0211691 W
                Gate Leakage = 0.00164666 W
                Runtime Dynamic = 0.534427 W

              FP Instruction Window:
                Area = 1.67059 mm^2
                Peak Dynamic = 3.46686 W
                Subthreshold Leakage = 0.0909135 W
                Gate Leakage = 0.0068744 W
                Runtime Dynamic = 0.191149 W

              ROB:
                Area = 1.52801 mm^2
                Peak Dynamic = 2.00073 W
                Subthreshold Leakage = 0.021499 W
                Gate Leakage = 0.0012005 W
                Runtime Dynamic = 0.992571 W

          Integer ALUs (Count: 6 ):
            Area = 0.672672 mm^2
            Peak Dynamic = 2.72645 W
            Subthreshold Leakage = 0.599188 W
            Gate Leakage = 0.0454759 W
            Runtime Dynamic = 0.749732 W

          Floating Point Units (FPUs) (Count: 6 ):
            Area = 29.1588 mm^2
            Peak Dynamic = 2.45381 W
            Subthreshold Leakage = 6.49334 W
            Gate Leakage = 0.492818 W
            Runtime Dynamic = 0.799289 W

          Complex ALUs (Mul/Div) (Count: 2 ):
            Area = 0.672672 mm^2
            Peak Dynamic = 0.589168 W
            Subthreshold Leakage = 0.599188 W
            Gate Leakage = 0.0454759 W
            Runtime Dynamic = 0.308571 W

          Results Broadcast Bus:
            Area Overhead = 0.147745 mm^2
            Peak Dynamic = 4.6797 W
            Subthreshold Leakage = 0.230726 W
            Gate Leakage = 0.0175111 W
            Runtime Dynamic = 0.373158 W

*****************************************************************************************
L2
      Area = 34.2451 mm^2
      Peak Dynamic = 4.76051 W
      Subthreshold Leakage = 2.3493 W
      Gate Leakage = 0.0497633 W
      Runtime Dynamic = 0.00541734 W

*****************************************************************************************
BUSES
      Area = 0.813778 mm^2
      Peak Dynamic = 5.45485 W
      Subthreshold Leakage = 0.0743381 W
      Gate Leakage = 0.00833371 W
      Runtime Dynamic = 0.278856 W

      Bus: 
        Area = 0.813778 mm^2
        Peak Dynamic = 5.45485 W
        Subthreshold Leakage = 0.0743381 W
        Gate Leakage = 0.00833371 W
        Runtime Dynamic = 0.278856 W

*****************************************************************************************
