McPAT (version 1.3 of Feb, 2015) is computing the target processor...
 

McPAT (version 1.3 of Feb, 2015) results  (current print level is 5)
*****************************************************************************************
  Technology 65 nm
  Using Long Channel Devices When Appropriate
  Interconnect metal projection= aggressive interconnect technology projection
  Core clock Rate(MHz) 3194

*****************************************************************************************
Processor: 
  Area = 79.3346 mm^2
  Peak Power = 65.2464 W
  Total Leakage = 16.7377 W
  Peak Dynamic = 48.5087 W
  Subthreshold Leakage = 15.5897 W
  Gate Leakage = 1.14795 W
  Runtime Dynamic = 7.91109 W

  Total Cores: 1 cores 
  Device Type= ITRS high performance device type
    Area = 65.2171 mm^2
    Peak Dynamic = 35.386 W
    Subthreshold Leakage = 14.6538 W
    Gate Leakage = 1.10727 W
    Runtime Dynamic = 7.60214 W

  Total L2s: 
  Device Type= ITRS high performance device type
    Area = 13.4536 mm^2
    Peak Dynamic = 6.01535 W
    Subthreshold Leakage = 0.875281 W
    Gate Leakage = 0.0338801 W
    Runtime Dynamic = 0.0431809 W

  Total NoCs (Network/Bus): 
  Device Type= ITRS high performance device type
    Area = 0.663933 mm^2
    Peak Dynamic = 7.10733 W
    Subthreshold Leakage = 0.0606499 W
    Gate Leakage = 0.00679919 W
    Runtime Dynamic = 0.265769 W

*****************************************************************************************
Core:
      Area = 65.2171 mm^2
      Peak Dynamic = 35.386 W
      Subthreshold Leakage = 14.6538 W
      Gate Leakage = 1.10727 W
      Runtime Dynamic = 7.60214 W

      Instruction Fetch Unit:
        Area = 8.14138 mm^2
        Peak Dynamic = 4.59325 W
        Subthreshold Leakage = 1.27956 W
        Gate Leakage = 0.0798488 W
        Runtime Dynamic = 1.11554 W

          Instruction Cache:
            Area = 3.76459 mm^2
            Peak Dynamic = 2.44773 W
            Subthreshold Leakage = 0.447624 W
            Gate Leakage = 0.0289891 W
            Runtime Dynamic = 0.134687 W

          Branch Target Buffer:
            Area = 1.03533 mm^2
            Peak Dynamic = 0.309554 W
            Subthreshold Leakage = 0.0528128 W
            Gate Leakage = 0.00213695 W
            Runtime Dynamic = 0.0221414 W

          Branch Predictor:
            Area = 1.27471 mm^2
            Peak Dynamic = 0.513827 W
            Subthreshold Leakage = 0.0802185 W
            Gate Leakage = 0.00327525 W
            Runtime Dynamic = 0.0256511 W

              Global Predictor:
                Area = 0.442563 mm^2
                Peak Dynamic = 0.155012 W
                Subthreshold Leakage = 0.0280468 W
                Gate Leakage = 0.00110975 W
                Runtime Dynamic = 0.00827804 W

              Local Predictor:
              L1_Local Predictor:
                Area = 0.223592 mm^2
                Peak Dynamic = 0.0921291 W
                Subthreshold Leakage = 0.0152512 W
                Gate Leakage = 0.000630359 W
                Runtime Dynamic = 0.00525338 W

              L2_Local Predictor:
                Area = 0.126814 mm^2
                Peak Dynamic = 0.0597561 W
                Subthreshold Leakage = 0.00791691 W
                Gate Leakage = 0.0003635 W
                Runtime Dynamic = 0.00331422 W

              Chooser:
                Area = 0.442563 mm^2
                Peak Dynamic = 0.155012 W
                Subthreshold Leakage = 0.0280468 W
                Gate Leakage = 0.00110975 W
                Runtime Dynamic = 0.00827804 W

              RAS:
                Area = 0.0391741 mm^2
                Peak Dynamic = 0.0519184 W
                Subthreshold Leakage = 0.000956776 W
                Gate Leakage = 6.18858e-05 W
                Runtime Dynamic = 0.000527414 W

          Instruction Buffer:
            Area = 0.00867221 mm^2
            Peak Dynamic = 0.092413 W
            Subthreshold Leakage = 0.00114838 W
            Gate Leakage = 6.74413e-05 W
            Runtime Dynamic = 0.0613039 W

          Instruction Decoder:
            Area = 1.93827 mm^2
            Peak Dynamic = 1.06336 W
            Subthreshold Leakage = 0.659852 W
            Gate Leakage = 0.0381395 W
            Runtime Dynamic = 0.705402 W

      Renaming Unit:
        Area = 0.27218 mm^2
        Peak Dynamic = 0.999277 W
        Subthreshold Leakage = 0.0420492 W
        Gate Leakage = 0.00758985 W
        Runtime Dynamic = 0.753075 W

          Int Front End RAT with 0 internal checkpoints:
            Area = 0.025747 mm^2
            Peak Dynamic = 0.10243 W
            Subthreshold Leakage = 0.000517404 W
            Gate Leakage = 5.24626e-05 W
            Runtime Dynamic = 0.0368541 W

          FP Front End RAT with 0 internal checkpoints:
            Area = 0.025747 mm^2
            Peak Dynamic = 0.10243 W
            Subthreshold Leakage = 0.000517404 W
            Gate Leakage = 5.24626e-05 W
            Runtime Dynamic = 0.00782574 W

          Free List:
            Area = 0.0404774 mm^2
            Peak Dynamic = 0.0461429 W
            Subthreshold Leakage = 0.00118094 W
            Gate Leakage = 8.40627e-05 W
            Runtime Dynamic = 0.0290871 W

          Int Retire RAT: 
            Area = 0.0099603 mm^2
            Peak Dynamic = 0.0183579 W
            Subthreshold Leakage = 0.000371946 W
            Gate Leakage = 3.81607e-05 W
            Runtime Dynamic = 0.00636377 W

          FP Retire RAT:
            Area = 0.0099603 mm^2
            Peak Dynamic = 0.0183579 W
            Subthreshold Leakage = 0.000371946 W
            Gate Leakage = 3.81607e-05 W
            Runtime Dynamic = 0.00135131 W

          FP Free List:
            Area = 0.0404774 mm^2
            Peak Dynamic = 0.0461429 W
            Subthreshold Leakage = 0.00118094 W
            Gate Leakage = 8.40627e-05 W
            Runtime Dynamic = 0.00617646 W

      Load Store Unit:
        Area = 14.2056 mm^2
        Peak Dynamic = 9.82122 W
        Subthreshold Leakage = 1.36463 W
        Gate Leakage = 0.106619 W
        Runtime Dynamic = 1.17042 W

          Data Cache:
            Area = 11.6098 mm^2
            Peak Dynamic = 8.84298 W
            Subthreshold Leakage = 1.23828 W
            Gate Leakage = 0.0927196 W
            Runtime Dynamic = 0.699107 W

          LoadQ:
            Area = 0.597754 mm^2
            Peak Dynamic = 0.405944 W
            Subthreshold Leakage = 0.0442184 W
            Gate Leakage = 0.00332956 W
            Runtime Dynamic = 0.101654 W

          StoreQ:
            Area = 0.597754 mm^2
            Peak Dynamic = 0.405944 W
            Subthreshold Leakage = 0.0442184 W
            Gate Leakage = 0.00332956 W
            Runtime Dynamic = 0.203309 W

      Memory Management Unit:
        Area = 2.16636 mm^2
        Peak Dynamic = 1.57101 W
        Subthreshold Leakage = 0.217659 W
        Runtime Dynamic = 0.415885 W

          Itlb:
            Area = 0.544221 mm^2
            Peak Dynamic = 0.329349 W
            Subthreshold Leakage = 0.0754318 W
            Gate Leakage = 0.00460206 W
            Runtime Dynamic = 0 W

          Dtlb:
            Area = 1.50232 mm^2
            Peak Dynamic = 0.82577 W
            Subthreshold Leakage = 0.104318 W
            Gate Leakage = 0.00612156 W
            Runtime Dynamic = 0 W

      Execution Unit:
        Area = 31.9654 mm^2
        Peak Dynamic = 18.4013 W
        Subthreshold Leakage = 7.97924 W
        Runtime Dynamic = 4.14722 W

          Register Files:
            Area = 0.863237 mm^2
            Peak Dynamic = 1.12041 W
            Subthreshold Leakage = 0.0251501 W
            Gate Leakage = 0.001176 W
            Runtime Dynamic = 0.279885 W

              Integer RF:
                Area = 0.431618 mm^2
                Peak Dynamic = 0.876744 W
                Subthreshold Leakage = 0.0125751 W
                Gate Leakage = 0.000588002 W
                Runtime Dynamic = 0.224761 W

              Floating Point RF:
                Area = 0.431618 mm^2
                Peak Dynamic = 0.243664 W
                Subthreshold Leakage = 0.0125751 W
                Gate Leakage = 0.000588002 W
                Runtime Dynamic = 0.0551249 W

          Instruction Scheduler:
            Area = 0.350121 mm^2
            Peak Dynamic = 1.19467 W
            Subthreshold Leakage = 0.0217973 W
            Gate Leakage = 0.00150388 W
            Runtime Dynamic = 0.790764 W

              Instruction Window:
                Area = 0.060737 mm^2
                Peak Dynamic = 0.294328 W
                Subthreshold Leakage = 0.00441295 W
                Gate Leakage = 0.000357946 W
                Runtime Dynamic = 0.29098 W

              FP Instruction Window:
                Area = 0.159975 mm^2
                Peak Dynamic = 0.557529 W
                Subthreshold Leakage = 0.0111713 W
                Gate Leakage = 0.000824553 W
                Runtime Dynamic = 0.0874871 W

              ROB:
                Area = 0.12941 mm^2
                Peak Dynamic = 0.34281 W
                Subthreshold Leakage = 0.00621308 W
                Gate Leakage = 0.000321382 W
                Runtime Dynamic = 0.412297 W

          Integer ALUs (Count: 6 ):
            Area = 0.672672 mm^2
            Peak Dynamic = 4.28866 W
            Subthreshold Leakage = 0.599188 W
            Gate Leakage = 0.0454759 W
            Runtime Dynamic = 0.840964 W

          Floating Point Units (FPUs) (Count: 6 ):
            Area = 29.1588 mm^2
            Peak Dynamic = 3.85979 W
            Subthreshold Leakage = 6.49334 W
            Gate Leakage = 0.492818 W
            Runtime Dynamic = 0.881047 W

          Complex ALUs (Mul/Div) (Count: 2 ):
            Area = 0.672672 mm^2
            Peak Dynamic = 0.901609 W
            Subthreshold Leakage = 0.599188 W
            Gate Leakage = 0.0454759 W
            Runtime Dynamic = 0.323568 W

          Results Broadcast Bus:
            Area Overhead = 0.128094 mm^2
            Peak Dynamic = 6.37072 W
            Subthreshold Leakage = 0.202663 W
            Gate Leakage = 0.0153813 W
            Runtime Dynamic = 0.365572 W

*****************************************************************************************
L2
      Area = 13.4536 mm^2
      Peak Dynamic = 6.01535 W
      Subthreshold Leakage = 0.875281 W
      Gate Leakage = 0.0338801 W
      Runtime Dynamic = 0.0431809 W

*****************************************************************************************
BUSES
      Area = 0.663933 mm^2
      Peak Dynamic = 7.10733 W
      Subthreshold Leakage = 0.0606499 W
      Gate Leakage = 0.00679919 W
      Runtime Dynamic = 0.265769 W

      Bus: 
        Area = 0.663933 mm^2
        Peak Dynamic = 7.10733 W
        Subthreshold Leakage = 0.0606499 W
        Gate Leakage = 0.00679919 W
        Runtime Dynamic = 0.265769 W

*****************************************************************************************
