McPAT (version 1.3 of Feb, 2015) is computing the target processor...
 

McPAT (version 1.3 of Feb, 2015) results  (current print level is 5)
*****************************************************************************************
  Technology 65 nm
  Using Long Channel Devices When Appropriate
  Interconnect metal projection= aggressive interconnect technology projection
  Core clock Rate(MHz) 1200

*****************************************************************************************
Processor: 
  Area = 83.4811 mm^2
  Peak Power = 39.6798 W
  Total Leakage = 16.8769 W
  Peak Dynamic = 22.8029 W
  Subthreshold Leakage = 15.6916 W
  Gate Leakage = 1.18536 W
  Runtime Dynamic = 4.49906 W

  Total Cores: 1 cores 
  Device Type= ITRS high performance device type
    Area = 73.8655 mm^2
    Peak Dynamic = 17.9363 W
    Subthreshold Leakage = 15.0149 W
    Gate Leakage = 1.14753 W
    Runtime Dynamic = 4.38544 W

  Total L2s: 
  Device Type= ITRS high performance device type
    Area = 8.93442 mm^2
    Peak Dynamic = 2.12715 W
    Subthreshold Leakage = 0.614388 W
    Gate Leakage = 0.0308482 W
    Runtime Dynamic = 0.00127256 W

  Total NoCs (Network/Bus): 
  Device Type= ITRS high performance device type
    Area = 0.681135 mm^2
    Peak Dynamic = 2.73944 W
    Subthreshold Leakage = 0.0622213 W
    Gate Leakage = 0.00697535 W
    Runtime Dynamic = 0.112351 W

*****************************************************************************************
Core:
      Area = 73.8655 mm^2
      Peak Dynamic = 17.9363 W
      Subthreshold Leakage = 15.0149 W
      Gate Leakage = 1.14753 W
      Runtime Dynamic = 4.38544 W

      Instruction Fetch Unit:
        Area = 10.5649 mm^2
        Peak Dynamic = 2.42783 W
        Subthreshold Leakage = 1.20367 W
        Gate Leakage = 0.0826329 W
        Runtime Dynamic = 0.517189 W

          Instruction Cache:
            Area = 3.387 mm^2
            Peak Dynamic = 0.904972 W
            Subthreshold Leakage = 0.385273 W
            Gate Leakage = 0.026836 W
            Runtime Dynamic = 0.0354416 W

          Branch Target Buffer:
            Area = 2.7845 mm^2
            Peak Dynamic = 0.336838 W
            Subthreshold Leakage = 0.0786345 W
            Gate Leakage = 0.00322936 W
            Runtime Dynamic = 0.0105747 W

          Branch Predictor:
            Area = 0.262376 mm^2
            Peak Dynamic = 0.085706 W
            Subthreshold Leakage = 0.00429158 W
            Gate Leakage = 0.000362551 W
            Runtime Dynamic = 0.00104133 W

              Global Predictor:
                Area = 0.0322074 mm^2
                Peak Dynamic = 0.00550726 W
                Subthreshold Leakage = 0.00053943 W
                Gate Leakage = 5.41145e-05 W
                Runtime Dynamic = 0.000171144 W

              Local Predictor:
              L1_Local Predictor:
                Area = 0.0322074 mm^2
                Peak Dynamic = 0.00550726 W
                Subthreshold Leakage = 0.00053943 W
                Gate Leakage = 5.41145e-05 W
                Runtime Dynamic = 0.000171144 W

              L2_Local Predictor:
                Area = 0.0322074 mm^2
                Peak Dynamic = 0.00550726 W
                Subthreshold Leakage = 0.00053943 W
                Gate Leakage = 5.41145e-05 W
                Runtime Dynamic = 0.000171144 W

              Chooser:
                Area = 0.0322074 mm^2
                Peak Dynamic = 0.00550726 W
                Subthreshold Leakage = 0.00053943 W
                Gate Leakage = 5.41145e-05 W
                Runtime Dynamic = 0.000171144 W

              RAS:
                Area = 0.133546 mm^2
                Peak Dynamic = 0.063677 W
                Subthreshold Leakage = 0.00213386 W
                Gate Leakage = 0.000146093 W
                Runtime Dynamic = 0.000356754 W

          Instruction Buffer:
            Area = 0.0240454 mm^2
            Peak Dynamic = 0.181059 W
            Subthreshold Leakage = 0.00268701 W
            Gate Leakage = 0.000136196 W
            Runtime Dynamic = 0.0646392 W

          Instruction Decoder:
            Area = 3.87654 mm^2
            Peak Dynamic = 0.799021 W
            Subthreshold Leakage = 0.659852 W
            Gate Leakage = 0.0381395 W
            Runtime Dynamic = 0.285254 W

      Renaming Unit:
        Area = 1.21059 mm^2
        Peak Dynamic = 1.47264 W
        Subthreshold Leakage = 0.0825606 W
        Gate Leakage = 0.0144982 W
        Runtime Dynamic = 0.602997 W

          Int Front End RAT with 0 internal checkpoints:
            Area = 0.0546296 mm^2
            Peak Dynamic = 0.356051 W
            Subthreshold Leakage = 0.00072753 W
            Gate Leakage = 5.33898e-05 W
            Runtime Dynamic = 0.0673693 W

          FP Front End RAT with 0 internal checkpoints:
            Area = 0.0546296 mm^2
            Peak Dynamic = 0.356051 W
            Subthreshold Leakage = 0.00072753 W
            Gate Leakage = 5.33898e-05 W
            Runtime Dynamic = 0.0147546 W

          Free List:
            Area = 0.33559 mm^2
            Peak Dynamic = 0.0694238 W
            Subthreshold Leakage = 0.00312138 W
            Gate Leakage = 0.000159407 W
            Runtime Dynamic = 0.0252506 W

          Int Retire RAT: 
            Area = 0.167447 mm^2
            Peak Dynamic = 0.12198 W
            Subthreshold Leakage = 0.0013944 W
            Gate Leakage = 8.91613e-05 W
            Runtime Dynamic = 0.00833219 W

          FP Retire RAT:
            Area = 0.0322074 mm^2
            Peak Dynamic = 0.0187565 W
            Subthreshold Leakage = 0.00053943 W
            Gate Leakage = 5.41145e-05 W
            Runtime Dynamic = 0.000807526 W

          FP Free List:
            Area = 0.33559 mm^2
            Peak Dynamic = 0.0694238 W
            Subthreshold Leakage = 0.00312138 W
            Gate Leakage = 0.000159407 W
            Runtime Dynamic = 0.00553015 W

      Load Store Unit:
        Area = 16.8922 mm^2
        Peak Dynamic = 3.91211 W
        Subthreshold Leakage = 1.648 W
        Gate Leakage = 0.120709 W
        Runtime Dynamic = 0.52382 W

          Data Cache:
            Area = 13.9853 mm^2
            Peak Dynamic = 3.49554 W
            Subthreshold Leakage = 1.48837 W
            Gate Leakage = 0.100226 W
            Runtime Dynamic = 0.289917 W

          LoadQ:
            Area = 0.597754 mm^2
            Peak Dynamic = 0.152515 W
            Subthreshold Leakage = 0.0442184 W
            Gate Leakage = 0.00332956 W
            Runtime Dynamic = 0.0393867 W

          StoreQ:
            Area = 0.563883 mm^2
            Peak Dynamic = 0.143812 W
            Subthreshold Leakage = 0.0424807 W
            Gate Leakage = 0.00322446 W
            Runtime Dynamic = 0.0742786 W

      Memory Management Unit:
        Area = 2.27704 mm^2
        Peak Dynamic = 0.734579 W
        Subthreshold Leakage = 0.252679 W
        Runtime Dynamic = 0.300595 W

          Itlb:
            Area = 0.544221 mm^2
            Peak Dynamic = 0.123738 W
            Subthreshold Leakage = 0.0754318 W
            Gate Leakage = 0.00460206 W
            Runtime Dynamic = 0 W

          Dtlb:
            Area = 1.50232 mm^2
            Peak Dynamic = 0.310246 W
            Subthreshold Leakage = 0.104318 W
            Gate Leakage = 0.00612156 W
            Runtime Dynamic = 0 W

      Execution Unit:
        Area = 34.4546 mm^2
        Peak Dynamic = 9.38918 W
        Subthreshold Leakage = 8.05738 W
        Runtime Dynamic = 2.44084 W

          Register Files:
            Area = 2.71919 mm^2
            Peak Dynamic = 1.5227 W
            Subthreshold Leakage = 0.0475276 W
            Gate Leakage = 0.00260308 W
            Runtime Dynamic = 0.203986 W

              Integer RF:
                Area = 1.3596 mm^2
                Peak Dynamic = 1.20591 W
                Subthreshold Leakage = 0.0237638 W
                Gate Leakage = 0.00130154 W
                Runtime Dynamic = 0.16394 W

              Floating Point RF:
                Area = 1.3596 mm^2
                Peak Dynamic = 0.316792 W
                Subthreshold Leakage = 0.0237638 W
                Gate Leakage = 0.00130154 W
                Runtime Dynamic = 0.0400461 W

          Instruction Scheduler:
            Area = 0.870456 mm^2
            Peak Dynamic = 1.3732 W
            Subthreshold Leakage = 0.0392264 W
            Gate Leakage = 0.00292834 W
            Runtime Dynamic = 0.380362 W

              Instruction Window:
                Area = 0.145597 mm^2
                Peak Dynamic = 0.260593 W
                Subthreshold Leakage = 0.00760638 W
                Gate Leakage = 0.000602316 W
                Runtime Dynamic = 0.142232 W

              FP Instruction Window:
                Area = 0.464517 mm^2
                Peak Dynamic = 0.577686 W
                Subthreshold Leakage = 0.0270491 W
                Gate Leakage = 0.00203641 W
                Runtime Dynamic = 0.0505719 W

              ROB:
                Area = 0.260342 mm^2
                Peak Dynamic = 0.53492 W
                Subthreshold Leakage = 0.00457096 W
                Gate Leakage = 0.000289616 W
                Runtime Dynamic = 0.187558 W

          Integer ALUs (Count: 6 ):
            Area = 0.672672 mm^2
            Peak Dynamic = 1.67975 W
            Subthreshold Leakage = 0.599188 W
            Gate Leakage = 0.0454759 W
            Runtime Dynamic = 0.404634 W

          Floating Point Units (FPUs) (Count: 6 ):
            Area = 29.1588 mm^2
            Peak Dynamic = 1.51177 W
            Subthreshold Leakage = 6.49334 W
            Gate Leakage = 0.492818 W
            Runtime Dynamic = 0.554681 W

          Complex ALUs (Mul/Div) (Count: 2 ):
            Area = 0.672672 mm^2
            Peak Dynamic = 0.379828 W
            Subthreshold Leakage = 0.599188 W
            Gate Leakage = 0.0454759 W
            Runtime Dynamic = 0.262318 W

          Results Broadcast Bus:
            Area Overhead = 0.130377 mm^2
            Peak Dynamic = 2.44097 W
            Subthreshold Leakage = 0.205978 W
            Gate Leakage = 0.0156329 W
            Runtime Dynamic = 0.153904 W

*****************************************************************************************
L2
      Area = 8.93442 mm^2
      Peak Dynamic = 2.12715 W
      Subthreshold Leakage = 0.614388 W
      Gate Leakage = 0.0308482 W
      Runtime Dynamic = 0.00127256 W

*****************************************************************************************
BUSES
      Area = 0.681135 mm^2
      Peak Dynamic = 2.73944 W
      Subthreshold Leakage = 0.0622213 W
      Gate Leakage = 0.00697535 W
      Runtime Dynamic = 0.112351 W

      Bus: 
        Area = 0.681135 mm^2
        Peak Dynamic = 2.73944 W
        Subthreshold Leakage = 0.0622213 W
        Gate Leakage = 0.00697535 W
        Runtime Dynamic = 0.112351 W

*****************************************************************************************
