McPAT (version 1.3 of Feb, 2015) is computing the target processor...
 

McPAT (version 1.3 of Feb, 2015) results  (current print level is 5)
*****************************************************************************************
  Technology 65 nm
  Using Long Channel Devices When Appropriate
  Interconnect metal projection= aggressive interconnect technology projection
  Core clock Rate(MHz) 4000

*****************************************************************************************
Processor: 
  Area = 90.3941 mm^2
  Peak Power = 83.9784 W
  Total Leakage = 17.2885 W
  Peak Dynamic = 66.6899 W
  Subthreshold Leakage = 16.1299 W
  Gate Leakage = 1.15858 W
  Runtime Dynamic = 10.231 W

  Total Cores: 1 cores 
  Device Type= ITRS high performance device type
    Area = 71.1735 mm^2
    Peak Dynamic = 49.6606 W
    Subthreshold Leakage = 14.6546 W
    Gate Leakage = 1.11209 W
    Runtime Dynamic = 9.86043 W

  Total L2s: 
  Device Type= ITRS high performance device type
    Area = 17.8956 mm^2
    Peak Dynamic = 8.70035 W
    Subthreshold Leakage = 1.41855 W
    Gate Leakage = 0.0401246 W
    Runtime Dynamic = 0.0801438 W

  Total NoCs (Network/Bus): 
  Device Type= ITRS high performance device type
    Area = 1.32502 mm^2
    Peak Dynamic = 8.32898 W
    Subthreshold Leakage = 0.0567532 W
    Gate Leakage = 0.00636235 W
    Runtime Dynamic = 0.290415 W

*****************************************************************************************
Core:
      Area = 71.1735 mm^2
      Peak Dynamic = 49.6606 W
      Subthreshold Leakage = 14.6546 W
      Gate Leakage = 1.11209 W
      Runtime Dynamic = 9.86043 W

      Instruction Fetch Unit:
        Area = 13.9117 mm^2
        Peak Dynamic = 9.09226 W
        Subthreshold Leakage = 1.25241 W
        Gate Leakage = 0.0800064 W
        Runtime Dynamic = 1.41494 W

          Instruction Cache:
            Area = 3.22286 mm^2
            Peak Dynamic = 2.99723 W
            Subthreshold Leakage = 0.353467 W
            Gate Leakage = 0.0257461 W
            Runtime Dynamic = 0.174955 W

          Branch Target Buffer:
            Area = 2.7845 mm^2
            Peak Dynamic = 1.12279 W
            Subthreshold Leakage = 0.0786345 W
            Gate Leakage = 0.00322936 W
            Runtime Dynamic = 0.0447956 W

          Branch Predictor:
            Area = 3.88109 mm^2
            Peak Dynamic = 1.95302 W
            Subthreshold Leakage = 0.11562 W
            Gate Leakage = 0.00448018 W
            Runtime Dynamic = 0.0509058 W

              Global Predictor:
                Area = 1.33904 mm^2
                Peak Dynamic = 0.585633 W
                Subthreshold Leakage = 0.0396263 W
                Gate Leakage = 0.00146082 W
                Runtime Dynamic = 0.0164797 W

              Local Predictor:
              L1_Local Predictor:
                Area = 0.692822 mm^2
                Peak Dynamic = 0.351644 W
                Subthreshold Leakage = 0.0226283 W
                Gate Leakage = 0.000909419 W
                Runtime Dynamic = 0.0105723 W

              L2_Local Predictor:
                Area = 0.376636 mm^2
                Peak Dynamic = 0.217853 W
                Subthreshold Leakage = 0.0116055 W
                Gate Leakage = 0.00050303 W
                Runtime Dynamic = 0.00636305 W

              Chooser:
                Area = 1.33904 mm^2
                Peak Dynamic = 0.585633 W
                Subthreshold Leakage = 0.0396263 W
                Gate Leakage = 0.00146082 W
                Runtime Dynamic = 0.0164797 W

              RAS:
                Area = 0.133546 mm^2
                Peak Dynamic = 0.212257 W
                Subthreshold Leakage = 0.00213386 W
                Gate Leakage = 0.000146093 W
                Runtime Dynamic = 0.00101102 W

          Instruction Buffer:
            Area = 0.00867221 mm^2
            Peak Dynamic = 0.115733 W
            Subthreshold Leakage = 0.00114838 W
            Gate Leakage = 6.74413e-05 W
            Runtime Dynamic = 0.0722979 W

          Instruction Decoder:
            Area = 3.87654 mm^2
            Peak Dynamic = 2.6634 W
            Subthreshold Leakage = 0.659852 W
            Gate Leakage = 0.0381395 W
            Runtime Dynamic = 0.831906 W

      Renaming Unit:
        Area = 0.376844 mm^2
        Peak Dynamic = 3.01326 W
        Subthreshold Leakage = 0.0489371 W
        Gate Leakage = 0.00873992 W
        Runtime Dynamic = 1.33454 W

          Int Front End RAT with 0 internal checkpoints:
            Area = 0.0546296 mm^2
            Peak Dynamic = 1.18684 W
            Subthreshold Leakage = 0.00072753 W
            Gate Leakage = 5.33898e-05 W
            Runtime Dynamic = 0.253216 W

          FP Front End RAT with 0 internal checkpoints:
            Area = 0.025747 mm^2
            Peak Dynamic = 0.569763 W
            Subthreshold Leakage = 0.000517404 W
            Gate Leakage = 5.24626e-05 W
            Runtime Dynamic = 0.0444028 W

          Free List:
            Area = 0.0980021 mm^2
            Peak Dynamic = 0.145527 W
            Subthreshold Leakage = 0.00208211 W
            Gate Leakage = 0.000129895 W
            Runtime Dynamic = 0.0582285 W

          Int Retire RAT: 
            Area = 0.0099603 mm^2
            Peak Dynamic = 0.0229905 W
            Subthreshold Leakage = 0.000371946 W
            Gate Leakage = 3.81607e-05 W
            Runtime Dynamic = 0.00905805 W

          FP Retire RAT:
            Area = 0.0099603 mm^2
            Peak Dynamic = 0.0229905 W
            Subthreshold Leakage = 0.000371946 W
            Gate Leakage = 3.81607e-05 W
            Runtime Dynamic = 0.00165539 W

          FP Free List:
            Area = 0.0404774 mm^2
            Peak Dynamic = 0.104839 W
            Subthreshold Leakage = 0.00118094 W
            Gate Leakage = 8.40627e-05 W
            Runtime Dynamic = 0.00765918 W

      Load Store Unit:
        Area = 14.2503 mm^2
        Peak Dynamic = 12.3852 W
        Subthreshold Leakage = 1.37384 W
        Gate Leakage = 0.107902 W
        Runtime Dynamic = 1.43631 W

          Data Cache:
            Area = 11.6098 mm^2
            Peak Dynamic = 11.0745 W
            Subthreshold Leakage = 1.23828 W
            Gate Leakage = 0.0927196 W
            Runtime Dynamic = 0.802349 W

          LoadQ:
            Area = 0.563883 mm^2
            Peak Dynamic = 0.479375 W
            Subthreshold Leakage = 0.0424807 W
            Gate Leakage = 0.00322446 W
            Runtime Dynamic = 0.113609 W

          StoreQ:
            Area = 0.655618 mm^2
            Peak Dynamic = 0.591298 W
            Subthreshold Leakage = 0.0493864 W
            Gate Leakage = 0.00361371 W
            Runtime Dynamic = 0.280269 W

      Memory Management Unit:
        Area = 2.18461 mm^2
        Peak Dynamic = 2.04681 W
        Subthreshold Leakage = 0.223435 W
        Runtime Dynamic = 0.600198 W

          Itlb:
            Area = 0.544221 mm^2
            Peak Dynamic = 0.41246 W
            Subthreshold Leakage = 0.0754318 W
            Gate Leakage = 0.00460206 W
            Runtime Dynamic = 0 W

          Dtlb:
            Area = 1.50232 mm^2
            Peak Dynamic = 1.03415 W
            Subthreshold Leakage = 0.104318 W
            Gate Leakage = 0.00612156 W
            Runtime Dynamic = 0 W

      Execution Unit:
        Area = 31.9839 mm^2
        Peak Dynamic = 23.123 W
        Subthreshold Leakage = 7.98535 W
        Runtime Dynamic = 5.07445 W

          Register Files:
            Area = 0.863237 mm^2
            Peak Dynamic = 1.40314 W
            Subthreshold Leakage = 0.0251501 W
            Gate Leakage = 0.001176 W
            Runtime Dynamic = 0.330319 W

              Integer RF:
                Area = 0.431618 mm^2
                Peak Dynamic = 1.09799 W
                Subthreshold Leakage = 0.0125751 W
                Gate Leakage = 0.000588002 W
                Runtime Dynamic = 0.265845 W

              Floating Point RF:
                Area = 0.431618 mm^2
                Peak Dynamic = 0.305152 W
                Subthreshold Leakage = 0.0125751 W
                Gate Leakage = 0.000588002 W
                Runtime Dynamic = 0.0644737 W

          Instruction Scheduler:
            Area = 0.350121 mm^2
            Peak Dynamic = 1.49614 W
            Subthreshold Leakage = 0.0217973 W
            Gate Leakage = 0.00150388 W
            Runtime Dynamic = 1.0665 W

              Instruction Window:
                Area = 0.060737 mm^2
                Peak Dynamic = 0.368601 W
                Subthreshold Leakage = 0.00441295 W
                Gate Leakage = 0.000357946 W
                Runtime Dynamic = 0.368608 W

              FP Instruction Window:
                Area = 0.159975 mm^2
                Peak Dynamic = 0.69822 W
                Subthreshold Leakage = 0.0111713 W
                Gate Leakage = 0.000824553 W
                Runtime Dynamic = 0.10804 W

              ROB:
                Area = 0.12941 mm^2
                Peak Dynamic = 0.429317 W
                Subthreshold Leakage = 0.00621308 W
                Gate Leakage = 0.000321382 W
                Runtime Dynamic = 0.589847 W

          Integer ALUs (Count: 6 ):
            Area = 0.672672 mm^2
            Peak Dynamic = 5.34321 W
            Subthreshold Leakage = 0.599188 W
            Gate Leakage = 0.0454759 W
            Runtime Dynamic = 0.974139 W

          Floating Point Units (FPUs) (Count: 6 ):
            Area = 29.1588 mm^2
            Peak Dynamic = 4.80889 W
            Subthreshold Leakage = 6.49334 W
            Gate Leakage = 0.492818 W
            Runtime Dynamic = 0.973883 W

          Complex ALUs (Mul/Div) (Count: 2 ):
            Area = 0.672672 mm^2
            Peak Dynamic = 1.11252 W
            Subthreshold Leakage = 0.599188 W
            Gate Leakage = 0.0454759 W
            Runtime Dynamic = 0.341045 W

          Results Broadcast Bus:
            Area Overhead = 0.128358 mm^2
            Peak Dynamic = 7.99881 W
            Subthreshold Leakage = 0.202993 W
            Gate Leakage = 0.0154063 W
            Runtime Dynamic = 0.42825 W

*****************************************************************************************
L2
      Area = 17.8956 mm^2
      Peak Dynamic = 8.70035 W
      Subthreshold Leakage = 1.41855 W
      Gate Leakage = 0.0401246 W
      Runtime Dynamic = 0.0801438 W

*****************************************************************************************
BUSES
      Area = 1.32502 mm^2
      Peak Dynamic = 8.32898 W
      Subthreshold Leakage = 0.0567532 W
      Gate Leakage = 0.00636235 W
      Runtime Dynamic = 0.290415 W

      Bus: 
        Area = 1.32502 mm^2
        Peak Dynamic = 8.32898 W
        Subthreshold Leakage = 0.0567532 W
        Gate Leakage = 0.00636235 W
        Runtime Dynamic = 0.290415 W

*****************************************************************************************
