McPAT (version 1.3 of Feb, 2015) is computing the target processor...
 

McPAT (version 1.3 of Feb, 2015) results  (current print level is 5)
*****************************************************************************************
  Technology 65 nm
  Using Long Channel Devices When Appropriate
  Interconnect metal projection= aggressive interconnect technology projection
  Core clock Rate(MHz) 3401

*****************************************************************************************
Processor: 
  Area = 147.56 mm^2
  Peak Power = 137.716 W
  Total Leakage = 18.9084 W
  Peak Dynamic = 118.808 W
  Subthreshold Leakage = 17.687 W
  Gate Leakage = 1.22134 W
  Runtime Dynamic = 15.1301 W

  Total Cores: 1 cores 
  Device Type= ITRS high performance device type
    Area = 111.62 mm^2
    Peak Dynamic = 101.65 W
    Subthreshold Leakage = 15.2651 W
    Gate Leakage = 1.16344 W
    Runtime Dynamic = 14.7541 W

  Total L2s: 
  Device Type= ITRS high performance device type
    Area = 34.2451 mm^2
    Peak Dynamic = 8.09525 W
    Subthreshold Leakage = 2.3493 W
    Gate Leakage = 0.0497633 W
    Runtime Dynamic = 0.00637402 W

  Total NoCs (Network/Bus): 
  Device Type= ITRS high performance device type
    Area = 1.69564 mm^2
    Peak Dynamic = 9.06254 W
    Subthreshold Leakage = 0.0726276 W
    Gate Leakage = 0.00814196 W
    Runtime Dynamic = 0.369627 W

*****************************************************************************************
Core:
      Area = 111.62 mm^2
      Peak Dynamic = 101.65 W
      Subthreshold Leakage = 15.2651 W
      Gate Leakage = 1.16344 W
      Runtime Dynamic = 14.7541 W

      Instruction Fetch Unit:
        Area = 47.6932 mm^2
        Peak Dynamic = 18.5551 W
        Subthreshold Leakage = 1.41618 W
        Gate Leakage = 0.0932393 W
        Runtime Dynamic = 1.64569 W

          Instruction Cache:
            Area = 3.76459 mm^2
            Peak Dynamic = 2.60637 W
            Subthreshold Leakage = 0.447624 W
            Gate Leakage = 0.0289891 W
            Runtime Dynamic = 0.148413 W

          Branch Target Buffer:
            Area = 30.3399 mm^2
            Peak Dynamic = 6.33746 W
            Subthreshold Leakage = 0.209817 W
            Gate Leakage = 0.00973264 W
            Runtime Dynamic = 0.0784006 W

          Branch Predictor:
            Area = 1.6867 mm^2
            Peak Dynamic = 1.93725 W
            Subthreshold Leakage = 0.0176138 W
            Gate Leakage = 0.00123222 W
            Runtime Dynamic = 0.00829639 W

              Global Predictor:
                Area = 0.167447 mm^2
                Peak Dynamic = 0.14137 W
                Subthreshold Leakage = 0.0013944 W
                Gate Leakage = 8.91613e-05 W
                Runtime Dynamic = 0.0014326 W

              Local Predictor:
              L1_Local Predictor:
                Area = 0.167447 mm^2
                Peak Dynamic = 0.14137 W
                Subthreshold Leakage = 0.0013944 W
                Gate Leakage = 8.91613e-05 W
                Runtime Dynamic = 0.0014326 W

              L2_Local Predictor:
                Area = 0.167447 mm^2
                Peak Dynamic = 0.14137 W
                Subthreshold Leakage = 0.0013944 W
                Gate Leakage = 8.91613e-05 W
                Runtime Dynamic = 0.0014326 W

              Chooser:
                Area = 0.167447 mm^2
                Peak Dynamic = 0.14137 W
                Subthreshold Leakage = 0.0013944 W
                Gate Leakage = 8.91613e-05 W
                Runtime Dynamic = 0.0014326 W

              RAS:
                Area = 1.01692 mm^2
                Peak Dynamic = 1.37177 W
                Subthreshold Leakage = 0.0120362 W
                Gate Leakage = 0.000875575 W
                Runtime Dynamic = 0.00256598 W

          Instruction Buffer:
            Area = 0.0240454 mm^2
            Peak Dynamic = 0.513153 W
            Subthreshold Leakage = 0.00268701 W
            Gate Leakage = 0.000136196 W
            Runtime Dynamic = 0.192752 W

          Instruction Decoder:
            Area = 11.6296 mm^2
            Peak Dynamic = 6.79367 W
            Subthreshold Leakage = 0.659852 W
            Gate Leakage = 0.0381395 W
            Runtime Dynamic = 0.850621 W

      Renaming Unit:
        Area = 1.40197 mm^2
        Peak Dynamic = 42.9803 W
        Subthreshold Leakage = 0.0892751 W
        Gate Leakage = 0.0156933 W
        Runtime Dynamic = 4.09999 W

          Int Front End RAT with 0 internal checkpoints:
            Area = 0.390059 mm^2
            Peak Dynamic = 30.4048 W
            Subthreshold Leakage = 0.00248417 W
            Gate Leakage = 0.000162095 W
            Runtime Dynamic = 2.09991 W

          FP Front End RAT with 0 internal checkpoints:
            Area = 0.0546296 mm^2
            Peak Dynamic = 10.0181 W
            Subthreshold Leakage = 0.00072753 W
            Gate Leakage = 5.33898e-05 W
            Runtime Dynamic = 0.418006 W

          Free List:
            Area = 0.568743 mm^2
            Peak Dynamic = 0.669951 W
            Subthreshold Leakage = 0.00448473 W
            Gate Leakage = 0.000245996 W
            Runtime Dynamic = 0.093701 W

          Int Retire RAT: 
            Area = 0.0099603 mm^2
            Peak Dynamic = 0.0195477 W
            Subthreshold Leakage = 0.000371946 W
            Gate Leakage = 3.81607e-05 W
            Runtime Dynamic = 0.0075743 W

          FP Retire RAT:
            Area = 0.0322074 mm^2
            Peak Dynamic = 0.0531591 W
            Subthreshold Leakage = 0.00053943 W
            Gate Leakage = 5.41145e-05 W
            Runtime Dynamic = 0.00224208 W

          FP Free List:
            Area = 0.0980021 mm^2
            Peak Dynamic = 0.346018 W
            Subthreshold Leakage = 0.00208211 W
            Gate Leakage = 0.000129895 W
            Runtime Dynamic = 0.00973749 W

      Load Store Unit:
        Area = 16.9101 mm^2
        Peak Dynamic = 11.114 W
        Subthreshold Leakage = 1.65366 W
        Gate Leakage = 0.121789 W
        Runtime Dynamic = 1.57426 W

          Data Cache:
            Area = 13.9853 mm^2
            Peak Dynamic = 9.90695 W
            Subthreshold Leakage = 1.48837 W
            Gate Leakage = 0.100226 W
            Runtime Dynamic = 0.82563 W

          LoadQ:
            Area = 0.563883 mm^2
            Peak Dynamic = 0.407588 W
            Subthreshold Leakage = 0.0424807 W
            Gate Leakage = 0.00322446 W
            Runtime Dynamic = 0.122212 W

          StoreQ:
            Area = 0.597754 mm^2
            Peak Dynamic = 0.432252 W
            Subthreshold Leakage = 0.0442184 W
            Gate Leakage = 0.00332956 W
            Runtime Dynamic = 0.259214 W

      Memory Management Unit:
        Area = 2.29491 mm^2
        Peak Dynamic = 2.14799 W
        Subthreshold Leakage = 0.258335 W
        Runtime Dynamic = 0.918011 W

          Itlb:
            Area = 0.544221 mm^2
            Peak Dynamic = 0.350694 W
            Subthreshold Leakage = 0.0754318 W
            Gate Leakage = 0.00460206 W
            Runtime Dynamic = 0 W

          Dtlb:
            Area = 1.50232 mm^2
            Peak Dynamic = 0.879288 W
            Subthreshold Leakage = 0.104318 W
            Gate Leakage = 0.00612156 W
            Runtime Dynamic = 0 W

      Execution Unit:
        Area = 34.8533 mm^2
        Peak Dynamic = 26.8524 W
        Subthreshold Leakage = 8.077 W
        Runtime Dynamic = 6.51612 W

          Register Files:
            Area = 2.71919 mm^2
            Peak Dynamic = 4.3156 W
            Subthreshold Leakage = 0.0475276 W
            Gate Leakage = 0.00260308 W
            Runtime Dynamic = 0.60322 W

              Integer RF:
                Area = 1.3596 mm^2
                Peak Dynamic = 3.41776 W
                Subthreshold Leakage = 0.0237638 W
                Gate Leakage = 0.00130154 W
                Runtime Dynamic = 0.490035 W

              Floating Point RF:
                Area = 1.3596 mm^2
                Peak Dynamic = 0.897841 W
                Subthreshold Leakage = 0.0237638 W
                Gate Leakage = 0.00130154 W
                Runtime Dynamic = 0.113186 W

          Instruction Scheduler:
            Area = 1.25052 mm^2
            Peak Dynamic = 4.48561 W
            Subthreshold Leakage = 0.0521177 W
            Gate Leakage = 0.00370728 W
            Runtime Dynamic = 1.70081 W

              Instruction Window:
                Area = 0.223482 mm^2
                Peak Dynamic = 1.23943 W
                Subthreshold Leakage = 0.0102604 W
                Gate Leakage = 0.000826782 W
                Runtime Dynamic = 0.738563 W

              FP Instruction Window:
                Area = 0.602044 mm^2
                Peak Dynamic = 2.27614 W
                Subthreshold Leakage = 0.0313939 W
                Gate Leakage = 0.00233288 W
                Runtime Dynamic = 0.190192 W

              ROB:
                Area = 0.424996 mm^2
                Peak Dynamic = 0.970036 W
                Subthreshold Leakage = 0.0104634 W
                Gate Leakage = 0.00054761 W
                Runtime Dynamic = 0.772052 W

          Integer ALUs (Count: 6 ):
            Area = 0.672672 mm^2
            Peak Dynamic = 4.55949 W
            Subthreshold Leakage = 0.599188 W
            Gate Leakage = 0.0454759 W
            Runtime Dynamic = 0.998458 W

          Floating Point Units (FPUs) (Count: 6 ):
            Area = 29.1588 mm^2
            Peak Dynamic = 4.10354 W
            Subthreshold Leakage = 6.49334 W
            Gate Leakage = 0.492818 W
            Runtime Dynamic = 0.967472 W

          Complex ALUs (Mul/Div) (Count: 2 ):
            Area = 0.672672 mm^2
            Peak Dynamic = 0.955776 W
            Subthreshold Leakage = 0.599188 W
            Gate Leakage = 0.0454759 W
            Runtime Dynamic = 0.340384 W

          Results Broadcast Bus:
            Area Overhead = 0.131134 mm^2
            Peak Dynamic = 6.96355 W
            Subthreshold Leakage = 0.207053 W
            Gate Leakage = 0.0157145 W
            Runtime Dynamic = 0.436958 W

*****************************************************************************************
L2
      Area = 34.2451 mm^2
      Peak Dynamic = 8.09525 W
      Subthreshold Leakage = 2.3493 W
      Gate Leakage = 0.0497633 W
      Runtime Dynamic = 0.00637402 W

*****************************************************************************************
BUSES
      Area = 1.69564 mm^2
      Peak Dynamic = 9.06254 W
      Subthreshold Leakage = 0.0726276 W
      Gate Leakage = 0.00814196 W
      Runtime Dynamic = 0.369627 W

      Bus: 
        Area = 1.69564 mm^2
        Peak Dynamic = 9.06254 W
        Subthreshold Leakage = 0.0726276 W
        Gate Leakage = 0.00814196 W
        Runtime Dynamic = 0.369627 W

*****************************************************************************************
