McPAT (version 1.3 of Feb, 2015) is computing the target processor...
 

McPAT (version 1.3 of Feb, 2015) results  (current print level is 5)
*****************************************************************************************
  Technology 65 nm
  Using Long Channel Devices When Appropriate
  Interconnect metal projection= aggressive interconnect technology projection
  Core clock Rate(MHz) 3194

*****************************************************************************************
Processor: 
  Area = 113.332 mm^2
  Peak Power = 153.6 W
  Total Leakage = 17.9116 W
  Peak Dynamic = 135.689 W
  Subthreshold Leakage = 16.5924 W
  Gate Leakage = 1.31916 W
  Runtime Dynamic = 25.8917 W

  Total Cores: 1 cores 
  Device Type= ITRS high performance device type
    Area = 104.802 mm^2
    Peak Dynamic = 122.99 W
    Subthreshold Leakage = 16.0809 W
    Gate Leakage = 1.28333 W
    Runtime Dynamic = 25.5225 W

  Total L2s: 
  Device Type= ITRS high performance device type
    Area = 7.04507 mm^2
    Peak Dynamic = 5.24579 W
    Subthreshold Leakage = 0.447928 W
    Gate Leakage = 0.02871 W
    Runtime Dynamic = 0.00280873 W

  Total NoCs (Network/Bus): 
  Device Type= ITRS high performance device type
    Area = 1.48481 mm^2
    Peak Dynamic = 7.45273 W
    Subthreshold Leakage = 0.0635974 W
    Gate Leakage = 0.00712962 W
    Runtime Dynamic = 0.36641 W

*****************************************************************************************
Core:
      Area = 104.802 mm^2
      Peak Dynamic = 122.99 W
      Subthreshold Leakage = 16.0809 W
      Gate Leakage = 1.28333 W
      Runtime Dynamic = 25.5225 W

      Instruction Fetch Unit:
        Area = 11.3858 mm^2
        Peak Dynamic = 15.2514 W
        Subthreshold Leakage = 1.3774 W
        Gate Leakage = 0.1052 W
        Runtime Dynamic = 3.37261 W

          Instruction Cache:
            Area = 3.76459 mm^2
            Peak Dynamic = 2.44773 W
            Subthreshold Leakage = 0.447624 W
            Gate Leakage = 0.0289891 W
            Runtime Dynamic = 0.177844 W

          Branch Target Buffer:
            Area = 2.7845 mm^2
            Peak Dynamic = 0.896551 W
            Subthreshold Leakage = 0.0786345 W
            Gate Leakage = 0.00322936 W
            Runtime Dynamic = 0.0433597 W

          Branch Predictor:
            Area = 0.262376 mm^2
            Peak Dynamic = 0.228121 W
            Subthreshold Leakage = 0.00429158 W
            Gate Leakage = 0.000362551 W
            Runtime Dynamic = 0.00378069 W

              Global Predictor:
                Area = 0.0322074 mm^2
                Peak Dynamic = 0.0146585 W
                Subthreshold Leakage = 0.00053943 W
                Gate Leakage = 5.41145e-05 W
                Runtime Dynamic = 0.000660596 W

              Local Predictor:
              L1_Local Predictor:
                Area = 0.0322074 mm^2
                Peak Dynamic = 0.0146585 W
                Subthreshold Leakage = 0.00053943 W
                Gate Leakage = 5.41145e-05 W
                Runtime Dynamic = 0.000660596 W

              L2_Local Predictor:
                Area = 0.0322074 mm^2
                Peak Dynamic = 0.0146585 W
                Subthreshold Leakage = 0.00053943 W
                Gate Leakage = 5.41145e-05 W
                Runtime Dynamic = 0.000660596 W

              Chooser:
                Area = 0.0322074 mm^2
                Peak Dynamic = 0.0146585 W
                Subthreshold Leakage = 0.00053943 W
                Gate Leakage = 5.41145e-05 W
                Runtime Dynamic = 0.000660596 W

              RAS:
                Area = 0.133546 mm^2
                Peak Dynamic = 0.169487 W
                Subthreshold Leakage = 0.00213386 W
                Gate Leakage = 0.000146093 W
                Runtime Dynamic = 0.0011383 W

          Instruction Buffer:
            Area = 0.134881 mm^2
            Peak Dynamic = 8.77068 W
            Subthreshold Leakage = 0.00888299 W
            Gate Leakage = 0.000460212 W
            Runtime Dynamic = 1.36967 W

          Instruction Decoder:
            Area = 3.87654 mm^2
            Peak Dynamic = 2.12673 W
            Subthreshold Leakage = 0.659852 W
            Gate Leakage = 0.0381395 W
            Runtime Dynamic = 0.996358 W

      Renaming Unit:
        Area = 2.31131 mm^2
        Peak Dynamic = 8.15325 W
        Subthreshold Leakage = 0.191394 W
        Gate Leakage = 0.0347954 W
        Runtime Dynamic = 3.56322 W

          Int Front End RAT with 0 internal checkpoints:
            Area = 0.0546296 mm^2
            Peak Dynamic = 0.947689 W
            Subthreshold Leakage = 0.00072753 W
            Gate Leakage = 5.33898e-05 W
            Runtime Dynamic = 0.250185 W

          FP Front End RAT with 0 internal checkpoints:
            Area = 0.390059 mm^2
            Peak Dynamic = 3.1723 W
            Subthreshold Leakage = 0.00248417 W
            Gate Leakage = 0.000162095 W
            Runtime Dynamic = 0.0545603 W

          Free List:
            Area = 0.223998 mm^2
            Peak Dynamic = 0.158109 W
            Subthreshold Leakage = 0.00271788 W
            Gate Leakage = 0.000149945 W
            Runtime Dynamic = 0.0788342 W

          Int Retire RAT: 
            Area = 0.0783228 mm^2
            Peak Dynamic = 0.159261 W
            Subthreshold Leakage = 0.000800707 W
            Gate Leakage = 5.66636e-05 W
            Runtime Dynamic = 0.0217068 W

          FP Retire RAT:
            Area = 0.167447 mm^2
            Peak Dynamic = 0.32467 W
            Subthreshold Leakage = 0.0013944 W
            Gate Leakage = 8.91613e-05 W
            Runtime Dynamic = 0.00583087 W

          FP Free List:
            Area = 0.83393 mm^2
            Peak Dynamic = 0.264821 W
            Subthreshold Leakage = 0.0051586 W
            Gate Leakage = 0.000265365 W
            Runtime Dynamic = 0.0256982 W

      Load Store Unit:
        Area = 17.2883 mm^2
        Peak Dynamic = 10.9405 W
        Subthreshold Leakage = 1.75835 W
        Gate Leakage = 0.141083 W
        Runtime Dynamic = 2.24221 W

          Data Cache:
            Area = 13.9853 mm^2
            Peak Dynamic = 9.30397 W
            Subthreshold Leakage = 1.48837 W
            Gate Leakage = 0.100226 W
            Runtime Dynamic = 0.973742 W

          LoadQ:
            Area = 0.655618 mm^2
            Peak Dynamic = 0.472152 W
            Subthreshold Leakage = 0.0493864 W
            Gate Leakage = 0.00361371 W
            Runtime Dynamic = 0.185727 W

          StoreQ:
            Area = 0.563883 mm^2
            Peak Dynamic = 0.382781 W
            Subthreshold Leakage = 0.0424807 W
            Gate Leakage = 0.00322446 W
            Runtime Dynamic = 0.301143 W

      Memory Management Unit:
        Area = 2.60946 mm^2
        Peak Dynamic = 3.10912 W
        Subthreshold Leakage = 0.35786 W
        Runtime Dynamic = 1.954 W

          Itlb:
            Area = 0.544221 mm^2
            Peak Dynamic = 0.329349 W
            Subthreshold Leakage = 0.0754318 W
            Gate Leakage = 0.00460206 W
            Runtime Dynamic = 0 W

          Dtlb:
            Area = 1.50232 mm^2
            Peak Dynamic = 0.82577 W
            Subthreshold Leakage = 0.104318 W
            Gate Leakage = 0.00612156 W
            Runtime Dynamic = 0 W

      Execution Unit:
        Area = 62.741 mm^2
        Peak Dynamic = 85.5359 W
        Subthreshold Leakage = 8.62526 W
        Runtime Dynamic = 14.3904 W

          Register Files:
            Area = 19.9578 mm^2
            Peak Dynamic = 29.1875 W
            Subthreshold Leakage = 0.194556 W
            Gate Leakage = 0.0123226 W
            Runtime Dynamic = 1.77198 W

              Integer RF:
                Area = 9.9789 mm^2
                Peak Dynamic = 23.5766 W
                Subthreshold Leakage = 0.097278 W
                Gate Leakage = 0.00616128 W
                Runtime Dynamic = 1.44579 W

              Floating Point RF:
                Area = 9.9789 mm^2
                Peak Dynamic = 5.61094 W
                Subthreshold Leakage = 0.097278 W
                Gate Leakage = 0.00616128 W
                Runtime Dynamic = 0.326189 W

          Instruction Scheduler:
            Area = 11.5483 mm^2
            Peak Dynamic = 35.564 W
            Subthreshold Leakage = 0.301682 W
            Gate Leakage = 0.0215451 W
            Runtime Dynamic = 6.24769 W

              Instruction Window:
                Area = 1.59696 mm^2
                Peak Dynamic = 8.67912 W
                Subthreshold Leakage = 0.0470725 W
                Gate Leakage = 0.00365979 W
                Runtime Dynamic = 2.23897 W

              FP Instruction Window:
                Area = 4.70416 mm^2
                Peak Dynamic = 16.3779 W
                Subthreshold Leakage = 0.202368 W
                Gate Leakage = 0.0152176 W
                Runtime Dynamic = 0.568764 W

              ROB:
                Area = 5.24718 mm^2
                Peak Dynamic = 10.507 W
                Subthreshold Leakage = 0.0522424 W
                Gate Leakage = 0.00266775 W
                Runtime Dynamic = 3.43996 W

          Integer ALUs (Count: 6 ):
            Area = 0.672672 mm^2
            Peak Dynamic = 4.28866 W
            Subthreshold Leakage = 0.599188 W
            Gate Leakage = 0.0454759 W
            Runtime Dynamic = 1.15795 W

          Floating Point Units (FPUs) (Count: 6 ):
            Area = 29.1588 mm^2
            Peak Dynamic = 3.85979 W
            Subthreshold Leakage = 6.49334 W
            Gate Leakage = 0.492818 W
            Runtime Dynamic = 1.06107 W

          Complex ALUs (Mul/Div) (Count: 2 ):
            Area = 0.672672 mm^2
            Peak Dynamic = 0.901609 W
            Subthreshold Leakage = 0.599188 W
            Gate Leakage = 0.0454759 W
            Runtime Dynamic = 0.356362 W

          Results Broadcast Bus:
            Area Overhead = 0.167835 mm^2
            Peak Dynamic = 8.60799 W
            Subthreshold Leakage = 0.259194 W
            Gate Leakage = 0.0196718 W
            Runtime Dynamic = 0.668978 W

*****************************************************************************************
L2
      Area = 7.04507 mm^2
      Peak Dynamic = 5.24579 W
      Subthreshold Leakage = 0.447928 W
      Gate Leakage = 0.02871 W
      Runtime Dynamic = 0.00280873 W

*****************************************************************************************
BUSES
      Area = 1.48481 mm^2
      Peak Dynamic = 7.45273 W
      Subthreshold Leakage = 0.0635974 W
      Gate Leakage = 0.00712962 W
      Runtime Dynamic = 0.36641 W

      Bus: 
        Area = 1.48481 mm^2
        Peak Dynamic = 7.45273 W
        Subthreshold Leakage = 0.0635974 W
        Gate Leakage = 0.00712962 W
        Runtime Dynamic = 0.36641 W

*****************************************************************************************
