McPAT (version 1.3 of Feb, 2015) is computing the target processor...
 

McPAT (version 1.3 of Feb, 2015) results  (current print level is 5)
*****************************************************************************************
  Technology 65 nm
  Using Long Channel Devices When Appropriate
  Interconnect metal projection= aggressive interconnect technology projection
  Core clock Rate(MHz) 3194

*****************************************************************************************
Processor: 
  Area = 75.1508 mm^2
  Peak Power = 66.297 W
  Total Leakage = 16.1753 W
  Peak Dynamic = 50.1217 W
  Subthreshold Leakage = 15.0336 W
  Gate Leakage = 1.14169 W
  Runtime Dynamic = 7.59557 W

  Total Cores: 1 cores 
  Device Type= ITRS high performance device type
    Area = 67.4596 mm^2
    Peak Dynamic = 37.9593 W
    Subthreshold Leakage = 14.5266 W
    Gate Leakage = 1.10636 W
    Runtime Dynamic = 7.33731 W

  Total L2s: 
  Device Type= ITRS high performance device type
    Area = 7.04507 mm^2
    Peak Dynamic = 5.24579 W
    Subthreshold Leakage = 0.447928 W
    Gate Leakage = 0.02871 W
    Runtime Dynamic = 0.0241919 W

  Total NoCs (Network/Bus): 
  Device Type= ITRS high performance device type
    Area = 0.646115 mm^2
    Peak Dynamic = 6.91659 W
    Subthreshold Leakage = 0.0590222 W
    Gate Leakage = 0.00661672 W
    Runtime Dynamic = 0.234065 W

*****************************************************************************************
Core:
      Area = 67.4596 mm^2
      Peak Dynamic = 37.9593 W
      Subthreshold Leakage = 14.5266 W
      Gate Leakage = 1.10636 W
      Runtime Dynamic = 7.33731 W

      Instruction Fetch Unit:
        Area = 10.2903 mm^2
        Peak Dynamic = 5.9251 W
        Subthreshold Leakage = 1.14024 W
        Gate Leakage = 0.0757279 W
        Runtime Dynamic = 1.02743 W

          Instruction Cache:
            Area = 3.22286 mm^2
            Peak Dynamic = 2.39329 W
            Subthreshold Leakage = 0.353467 W
            Gate Leakage = 0.0257461 W
            Runtime Dynamic = 0.11111 W

          Branch Target Buffer:
            Area = 2.7845 mm^2
            Peak Dynamic = 0.896551 W
            Subthreshold Leakage = 0.0786345 W
            Gate Leakage = 0.00322936 W
            Runtime Dynamic = 0.0306923 W

          Branch Predictor:
            Area = 0.262376 mm^2
            Peak Dynamic = 0.228121 W
            Subthreshold Leakage = 0.00429158 W
            Gate Leakage = 0.000362551 W
            Runtime Dynamic = 0.00261643 W

              Global Predictor:
                Area = 0.0322074 mm^2
                Peak Dynamic = 0.0146585 W
                Subthreshold Leakage = 0.00053943 W
                Gate Leakage = 5.41145e-05 W
                Runtime Dynamic = 0.000458227 W

              Local Predictor:
              L1_Local Predictor:
                Area = 0.0322074 mm^2
                Peak Dynamic = 0.0146585 W
                Subthreshold Leakage = 0.00053943 W
                Gate Leakage = 5.41145e-05 W
                Runtime Dynamic = 0.000458227 W

              L2_Local Predictor:
                Area = 0.0322074 mm^2
                Peak Dynamic = 0.0146585 W
                Subthreshold Leakage = 0.00053943 W
                Gate Leakage = 5.41145e-05 W
                Runtime Dynamic = 0.000458227 W

              Chooser:
                Area = 0.0322074 mm^2
                Peak Dynamic = 0.0146585 W
                Subthreshold Leakage = 0.00053943 W
                Gate Leakage = 5.41145e-05 W
                Runtime Dynamic = 0.000458227 W

              RAS:
                Area = 0.133546 mm^2
                Peak Dynamic = 0.169487 W
                Subthreshold Leakage = 0.00213386 W
                Gate Leakage = 0.000146093 W
                Runtime Dynamic = 0.00078352 W

          Instruction Buffer:
            Area = 0.00867221 mm^2
            Peak Dynamic = 0.092413 W
            Subthreshold Leakage = 0.00114838 W
            Gate Leakage = 6.74413e-05 W
            Runtime Dynamic = 0.0555709 W

          Instruction Decoder:
            Area = 3.87654 mm^2
            Peak Dynamic = 2.12673 W
            Subthreshold Leakage = 0.659852 W
            Gate Leakage = 0.0381395 W
            Runtime Dynamic = 0.639434 W

      Renaming Unit:
        Area = 0.457515 mm^2
        Peak Dynamic = 2.45472 W
        Subthreshold Leakage = 0.0490327 W
        Gate Leakage = 0.00862671 W
        Runtime Dynamic = 1.00021 W

          Int Front End RAT with 0 internal checkpoints:
            Area = 0.0546296 mm^2
            Peak Dynamic = 0.947689 W
            Subthreshold Leakage = 0.00072753 W
            Gate Leakage = 5.33898e-05 W
            Runtime Dynamic = 0.158447 W

          FP Front End RAT with 0 internal checkpoints:
            Area = 0.025747 mm^2
            Peak Dynamic = 0.454956 W
            Subthreshold Leakage = 0.000517404 W
            Gate Leakage = 5.24626e-05 W
            Runtime Dynamic = 0.0318544 W

          Free List:
            Area = 0.134204 mm^2
            Peak Dynamic = 0.130214 W
            Subthreshold Leakage = 0.00229689 W
            Gate Leakage = 0.00013679 W
            Runtime Dynamic = 0.0413843 W

          Int Retire RAT: 
            Area = 0.0322074 mm^2
            Peak Dynamic = 0.0499236 W
            Subthreshold Leakage = 0.00053943 W
            Gate Leakage = 5.41145e-05 W
            Runtime Dynamic = 0.00852436 W

          FP Retire RAT:
            Area = 0.0099603 mm^2
            Peak Dynamic = 0.0183579 W
            Subthreshold Leakage = 0.000371946 W
            Gate Leakage = 3.81607e-05 W
            Runtime Dynamic = 0.00121613 W

          FP Free List:
            Area = 0.0653613 mm^2
            Peak Dynamic = 0.101556 W
            Subthreshold Leakage = 0.00173675 W
            Gate Leakage = 0.0001089 W
            Runtime Dynamic = 0.00675617 W

      Load Store Unit:
        Area = 14.1681 mm^2
        Peak Dynamic = 9.80806 W
        Subthreshold Leakage = 1.36696 W
        Gate Leakage = 0.107411 W
        Runtime Dynamic = 1.03915 W

          Data Cache:
            Area = 11.6098 mm^2
            Peak Dynamic = 8.84298 W
            Subthreshold Leakage = 1.23828 W
            Gate Leakage = 0.0927196 W
            Runtime Dynamic = 0.590855 W

          LoadQ:
            Area = 0.597754 mm^2
            Peak Dynamic = 0.405944 W
            Subthreshold Leakage = 0.0442184 W
            Gate Leakage = 0.00332956 W
            Runtime Dynamic = 0.092023 W

          StoreQ:
            Area = 0.549477 mm^2
            Peak Dynamic = 0.371135 W
            Subthreshold Leakage = 0.0416137 W
            Gate Leakage = 0.00317903 W
            Runtime Dynamic = 0.168265 W

      Memory Management Unit:
        Area = 2.18195 mm^2
        Peak Dynamic = 1.62514 W
        Subthreshold Leakage = 0.222593 W
        Runtime Dynamic = 0.470016 W

          Itlb:
            Area = 0.544221 mm^2
            Peak Dynamic = 0.329349 W
            Subthreshold Leakage = 0.0754318 W
            Gate Leakage = 0.00460206 W
            Runtime Dynamic = 0 W

          Dtlb:
            Area = 1.50232 mm^2
            Peak Dynamic = 0.82577 W
            Subthreshold Leakage = 0.104318 W
            Gate Leakage = 0.00612156 W
            Runtime Dynamic = 0 W

      Execution Unit:
        Area = 31.8955 mm^2
        Peak Dynamic = 18.1463 W
        Subthreshold Leakage = 7.97716 W
        Runtime Dynamic = 3.80051 W

          Register Files:
            Area = 0.863237 mm^2
            Peak Dynamic = 1.12041 W
            Subthreshold Leakage = 0.0251501 W
            Gate Leakage = 0.001176 W
            Runtime Dynamic = 0.254082 W

              Integer RF:
                Area = 0.431618 mm^2
                Peak Dynamic = 0.876744 W
                Subthreshold Leakage = 0.0125751 W
                Gate Leakage = 0.000588002 W
                Runtime Dynamic = 0.204134 W

              Floating Point RF:
                Area = 0.431618 mm^2
                Peak Dynamic = 0.243664 W
                Subthreshold Leakage = 0.0125751 W
                Gate Leakage = 0.000588002 W
                Runtime Dynamic = 0.0499484 W

          Instruction Scheduler:
            Area = 0.265289 mm^2
            Peak Dynamic = 0.889982 W
            Subthreshold Leakage = 0.015591 W
            Gate Leakage = 0.00106621 W
            Runtime Dynamic = 0.550667 W

              Instruction Window:
                Area = 0.036727 mm^2
                Peak Dynamic = 0.121873 W
                Subthreshold Leakage = 0.00226667 W
                Gate Leakage = 0.0001911 W
                Runtime Dynamic = 0.0983065 W

              FP Instruction Window:
                Area = 0.0991527 mm^2
                Peak Dynamic = 0.307043 W
                Subthreshold Leakage = 0.00711124 W
                Gate Leakage = 0.000553726 W
                Runtime Dynamic = 0.0483144 W

              ROB:
                Area = 0.12941 mm^2
                Peak Dynamic = 0.461067 W
                Subthreshold Leakage = 0.00621308 W
                Gate Leakage = 0.000321382 W
                Runtime Dynamic = 0.404046 W

          Integer ALUs (Count: 6 ):
            Area = 0.672672 mm^2
            Peak Dynamic = 4.28866 W
            Subthreshold Leakage = 0.599188 W
            Gate Leakage = 0.0454759 W
            Runtime Dynamic = 0.772887 W

          Floating Point Units (FPUs) (Count: 6 ):
            Area = 29.1588 mm^2
            Peak Dynamic = 3.85979 W
            Subthreshold Leakage = 6.49334 W
            Gate Leakage = 0.492818 W
            Runtime Dynamic = 0.828627 W

          Complex ALUs (Mul/Div) (Count: 2 ):
            Area = 0.672672 mm^2
            Peak Dynamic = 0.901609 W
            Subthreshold Leakage = 0.599188 W
            Gate Leakage = 0.0454759 W
            Runtime Dynamic = 0.313671 W

          Results Broadcast Bus:
            Area Overhead = 0.127478 mm^2
            Peak Dynamic = 6.3338 W
            Subthreshold Leakage = 0.201857 W
            Gate Leakage = 0.0153201 W
            Runtime Dynamic = 0.328547 W

*****************************************************************************************
L2
      Area = 7.04507 mm^2
      Peak Dynamic = 5.24579 W
      Subthreshold Leakage = 0.447928 W
      Gate Leakage = 0.02871 W
      Runtime Dynamic = 0.0241919 W

*****************************************************************************************
BUSES
      Area = 0.646115 mm^2
      Peak Dynamic = 6.91659 W
      Subthreshold Leakage = 0.0590222 W
      Gate Leakage = 0.00661672 W
      Runtime Dynamic = 0.234065 W

      Bus: 
        Area = 0.646115 mm^2
        Peak Dynamic = 6.91659 W
        Subthreshold Leakage = 0.0590222 W
        Gate Leakage = 0.00661672 W
        Runtime Dynamic = 0.234065 W

*****************************************************************************************
