McPAT (version 1.3 of Feb, 2015) is computing the target processor...
 

McPAT (version 1.3 of Feb, 2015) results  (current print level is 5)
*****************************************************************************************
  Technology 65 nm
  Using Long Channel Devices When Appropriate
  Interconnect metal projection= aggressive interconnect technology projection
  Core clock Rate(MHz) 3401

*****************************************************************************************
Processor: 
  Area = 80.0382 mm^2
  Peak Power = 71.2045 W
  Total Leakage = 16.3604 W
  Peak Dynamic = 54.8441 W
  Subthreshold Leakage = 15.2075 W
  Gate Leakage = 1.15282 W
  Runtime Dynamic = 8.46819 W

  Total Cores: 1 cores 
  Device Type= ITRS high performance device type
    Area = 71.7468 mm^2
    Peak Dynamic = 42.5977 W
    Subthreshold Leakage = 14.7062 W
    Gate Leakage = 1.11812 W
    Runtime Dynamic = 8.22178 W

  Total L2s: 
  Device Type= ITRS high performance device type
    Area = 7.04507 mm^2
    Peak Dynamic = 5.58576 W
    Subthreshold Leakage = 0.447928 W
    Gate Leakage = 0.02871 W
    Runtime Dynamic = 0.00942102 W

  Total NoCs (Network/Bus): 
  Device Type= ITRS high performance device type
    Area = 1.24623 mm^2
    Peak Dynamic = 6.66064 W
    Subthreshold Leakage = 0.0533787 W
    Gate Leakage = 0.00598404 W
    Runtime Dynamic = 0.236987 W

*****************************************************************************************
Core:
      Area = 71.7468 mm^2
      Peak Dynamic = 42.5977 W
      Subthreshold Leakage = 14.7062 W
      Gate Leakage = 1.11812 W
      Runtime Dynamic = 8.22178 W

      Instruction Fetch Unit:
        Area = 13.9311 mm^2
        Peak Dynamic = 7.75937 W
        Subthreshold Leakage = 1.25854 W
        Gate Leakage = 0.0811787 W
        Runtime Dynamic = 1.20511 W

          Instruction Cache:
            Area = 3.22286 mm^2
            Peak Dynamic = 2.54839 W
            Subthreshold Leakage = 0.353467 W
            Gate Leakage = 0.0257461 W
            Runtime Dynamic = 0.120039 W

          Branch Target Buffer:
            Area = 2.7845 mm^2
            Peak Dynamic = 0.954655 W
            Subthreshold Leakage = 0.0786345 W
            Gate Leakage = 0.00322936 W
            Runtime Dynamic = 0.0332938 W

          Branch Predictor:
            Area = 3.88109 mm^2
            Peak Dynamic = 1.66056 W
            Subthreshold Leakage = 0.11562 W
            Gate Leakage = 0.00448018 W
            Runtime Dynamic = 0.0393714 W

              Global Predictor:
                Area = 1.33904 mm^2
                Peak Dynamic = 0.497935 W
                Subthreshold Leakage = 0.0396263 W
                Gate Leakage = 0.00146082 W
                Runtime Dynamic = 0.0127044 W

              Local Predictor:
              L1_Local Predictor:
                Area = 0.692822 mm^2
                Peak Dynamic = 0.298986 W
                Subthreshold Leakage = 0.0226283 W
                Gate Leakage = 0.000909419 W
                Runtime Dynamic = 0.00817238 W

              L2_Local Predictor:
                Area = 0.376636 mm^2
                Peak Dynamic = 0.185229 W
                Subthreshold Leakage = 0.0116055 W
                Gate Leakage = 0.00050303 W
                Runtime Dynamic = 0.00491295 W

              Chooser:
                Area = 1.33904 mm^2
                Peak Dynamic = 0.497935 W
                Subthreshold Leakage = 0.0396263 W
                Gate Leakage = 0.00146082 W
                Runtime Dynamic = 0.0127044 W

              RAS:
                Area = 0.133546 mm^2
                Peak Dynamic = 0.180471 W
                Subthreshold Leakage = 0.00213386 W
                Gate Leakage = 0.000146093 W
                Runtime Dynamic = 0.000877176 W

          Instruction Buffer:
            Area = 0.00867221 mm^2
            Peak Dynamic = 0.0984022 W
            Subthreshold Leakage = 0.00114838 W
            Gate Leakage = 6.74413e-05 W
            Runtime Dynamic = 0.0623352 W

          Instruction Decoder:
            Area = 3.87654 mm^2
            Peak Dynamic = 2.26456 W
            Subthreshold Leakage = 0.659852 W
            Gate Leakage = 0.0381395 W
            Runtime Dynamic = 0.717268 W

      Renaming Unit:
        Area = 0.681355 mm^2
        Peak Dynamic = 2.92097 W
        Subthreshold Leakage = 0.0571145 W
        Gate Leakage = 0.00998902 W
        Runtime Dynamic = 1.22827 W

          Int Front End RAT with 0 internal checkpoints:
            Area = 0.0546296 mm^2
            Peak Dynamic = 1.00911 W
            Subthreshold Leakage = 0.00072753 W
            Gate Leakage = 5.33898e-05 W
            Runtime Dynamic = 0.177831 W

          FP Front End RAT with 0 internal checkpoints:
            Area = 0.025747 mm^2
            Peak Dynamic = 0.484441 W
            Subthreshold Leakage = 0.000517404 W
            Gate Leakage = 5.24626e-05 W
            Runtime Dynamic = 0.0359312 W

          Free List:
            Area = 0.223998 mm^2
            Peak Dynamic = 0.168356 W
            Subthreshold Leakage = 0.00271788 W
            Gate Leakage = 0.000149945 W
            Runtime Dynamic = 0.0564724 W

          Int Retire RAT: 
            Area = 0.0783228 mm^2
            Peak Dynamic = 0.169582 W
            Subthreshold Leakage = 0.000800707 W
            Gate Leakage = 5.66636e-05 W
            Runtime Dynamic = 0.0156473 W

          FP Retire RAT:
            Area = 0.0099603 mm^2
            Peak Dynamic = 0.0195477 W
            Subthreshold Leakage = 0.000371946 W
            Gate Leakage = 3.81607e-05 W
            Runtime Dynamic = 0.00137281 W

          FP Free List:
            Area = 0.131231 mm^2
            Peak Dynamic = 0.138713 W
            Subthreshold Leakage = 0.00215625 W
            Gate Leakage = 0.000122342 W
            Runtime Dynamic = 0.00979115 W

      Load Store Unit:
        Area = 14.5843 mm^2
        Peak Dynamic = 10.5287 W
        Subthreshold Leakage = 1.40992 W
        Gate Leakage = 0.109848 W
        Runtime Dynamic = 1.04828 W

          Data Cache:
            Area = 11.9681 mm^2
            Peak Dynamic = 9.46845 W
            Subthreshold Leakage = 1.27427 W
            Gate Leakage = 0.093823 W
            Runtime Dynamic = 0.514846 W

          LoadQ:
            Area = 0.549477 mm^2
            Peak Dynamic = 0.395188 W
            Subthreshold Leakage = 0.0416137 W
            Gate Leakage = 0.00317903 W
            Runtime Dynamic = 0.0943111 W

          StoreQ:
            Area = 0.597754 mm^2
            Peak Dynamic = 0.432252 W
            Subthreshold Leakage = 0.0442184 W
            Gate Leakage = 0.00332956 W
            Runtime Dynamic = 0.206313 W

      Memory Management Unit:
        Area = 2.20401 mm^2
        Peak Dynamic = 1.812 W
        Subthreshold Leakage = 0.229573 W
        Runtime Dynamic = 0.582016 W

          Itlb:
            Area = 0.544221 mm^2
            Peak Dynamic = 0.350694 W
            Subthreshold Leakage = 0.0754318 W
            Gate Leakage = 0.00460206 W
            Runtime Dynamic = 0 W

          Dtlb:
            Area = 1.50232 mm^2
            Peak Dynamic = 0.879288 W
            Subthreshold Leakage = 0.104318 W
            Gate Leakage = 0.00612156 W
            Runtime Dynamic = 0 W

      Execution Unit:
        Area = 31.8799 mm^2
        Peak Dynamic = 19.5767 W
        Subthreshold Leakage = 7.98042 W
        Runtime Dynamic = 4.1581 W

          Register Files:
            Area = 0.863237 mm^2
            Peak Dynamic = 1.19302 W
            Subthreshold Leakage = 0.0251501 W
            Gate Leakage = 0.001176 W
            Runtime Dynamic = 0.284939 W

              Integer RF:
                Area = 0.431618 mm^2
                Peak Dynamic = 0.933565 W
                Subthreshold Leakage = 0.0125751 W
                Gate Leakage = 0.000588002 W
                Runtime Dynamic = 0.229026 W

              Floating Point RF:
                Area = 0.431618 mm^2
                Peak Dynamic = 0.259456 W
                Subthreshold Leakage = 0.0125751 W
                Gate Leakage = 0.000588002 W
                Runtime Dynamic = 0.0559126 W

          Instruction Scheduler:
            Area = 0.227886 mm^2
            Peak Dynamic = 1.10633 W
            Subthreshold Leakage = 0.0122594 W
            Gate Leakage = 0.000938521 W
            Runtime Dynamic = 0.507977 W

              Instruction Window:
                Area = 0.036727 mm^2
                Peak Dynamic = 0.149996 W
                Subthreshold Leakage = 0.00235084 W
                Gate Leakage = 0.000202736 W
                Runtime Dynamic = 0.139665 W

              FP Instruction Window:
                Area = 0.113601 mm^2
                Peak Dynamic = 0.37789 W
                Subthreshold Leakage = 0.00774006 W
                Gate Leakage = 0.000608351 W
                Runtime Dynamic = 0.061002 W

              ROB:
                Area = 0.0775581 mm^2
                Peak Dynamic = 0.578443 W
                Subthreshold Leakage = 0.00216848 W
                Gate Leakage = 0.000127434 W
                Runtime Dynamic = 0.307311 W

          Integer ALUs (Count: 6 ):
            Area = 0.672672 mm^2
            Peak Dynamic = 4.55949 W
            Subthreshold Leakage = 0.599188 W
            Gate Leakage = 0.0454759 W
            Runtime Dynamic = 0.85409 W

          Floating Point Units (FPUs) (Count: 6 ):
            Area = 29.1588 mm^2
            Peak Dynamic = 4.10354 W
            Subthreshold Leakage = 6.49334 W
            Gate Leakage = 0.492818 W
            Runtime Dynamic = 0.888161 W

          Complex ALUs (Mul/Div) (Count: 2 ):
            Area = 0.672672 mm^2
            Peak Dynamic = 0.955776 W
            Subthreshold Leakage = 0.599188 W
            Gate Leakage = 0.0454759 W
            Runtime Dynamic = 0.32494 W

          Results Broadcast Bus:
            Area Overhead = 0.127198 mm^2
            Peak Dynamic = 6.72733 W
            Subthreshold Leakage = 0.201466 W
            Gate Leakage = 0.0152904 W
            Runtime Dynamic = 0.36677 W

*****************************************************************************************
L2
      Area = 7.04507 mm^2
      Peak Dynamic = 5.58576 W
      Subthreshold Leakage = 0.447928 W
      Gate Leakage = 0.02871 W
      Runtime Dynamic = 0.00942102 W

*****************************************************************************************
BUSES
      Area = 1.24623 mm^2
      Peak Dynamic = 6.66064 W
      Subthreshold Leakage = 0.0533787 W
      Gate Leakage = 0.00598404 W
      Runtime Dynamic = 0.236987 W

      Bus: 
        Area = 1.24623 mm^2
        Peak Dynamic = 6.66064 W
        Subthreshold Leakage = 0.0533787 W
        Gate Leakage = 0.00598404 W
        Runtime Dynamic = 0.236987 W

*****************************************************************************************
