McPAT (version 1.3 of Feb, 2015) is computing the target processor...
 

McPAT (version 1.3 of Feb, 2015) results  (current print level is 5)
*****************************************************************************************
  Technology 65 nm
  Using Long Channel Devices When Appropriate
  Interconnect metal projection= aggressive interconnect technology projection
  Core clock Rate(MHz) 2000

*****************************************************************************************
Processor: 
  Area = 84.4315 mm^2
  Peak Power = 48.4285 W
  Total Leakage = 17.2995 W
  Peak Dynamic = 31.129 W
  Subthreshold Leakage = 16.1453 W
  Gate Leakage = 1.15421 W
  Runtime Dynamic = 5.10982 W

  Total Cores: 1 cores 
  Device Type= ITRS high performance device type
    Area = 65.8509 mm^2
    Peak Dynamic = 22.1871 W
    Subthreshold Leakage = 14.6642 W
    Gate Leakage = 1.10707 W
    Runtime Dynamic = 4.92053 W

  Total L2s: 
  Device Type= ITRS high performance device type
    Area = 17.8956 mm^2
    Peak Dynamic = 4.35018 W
    Subthreshold Leakage = 1.41855 W
    Gate Leakage = 0.0401246 W
    Runtime Dynamic = 0.00646136 W

  Total NoCs (Network/Bus): 
  Device Type= ITRS high performance device type
    Area = 0.685017 mm^2
    Peak Dynamic = 4.59175 W
    Subthreshold Leakage = 0.0625759 W
    Gate Leakage = 0.0070151 W
    Runtime Dynamic = 0.182832 W

*****************************************************************************************
Core:
      Area = 65.8509 mm^2
      Peak Dynamic = 22.1871 W
      Subthreshold Leakage = 14.6642 W
      Gate Leakage = 1.10707 W
      Runtime Dynamic = 4.92053 W

      Instruction Fetch Unit:
        Area = 7.59965 mm^2
        Peak Dynamic = 2.84208 W
        Subthreshold Leakage = 1.18541 W
        Gate Leakage = 0.0766058 W
        Runtime Dynamic = 0.71951 W

          Instruction Cache:
            Area = 3.22286 mm^2
            Peak Dynamic = 1.49861 W
            Subthreshold Leakage = 0.353467 W
            Gate Leakage = 0.0257461 W
            Runtime Dynamic = 0.0758787 W

          Branch Target Buffer:
            Area = 1.03533 mm^2
            Peak Dynamic = 0.193834 W
            Subthreshold Leakage = 0.0528128 W
            Gate Leakage = 0.00213695 W
            Runtime Dynamic = 0.0145674 W

          Branch Predictor:
            Area = 1.27471 mm^2
            Peak Dynamic = 0.321745 W
            Subthreshold Leakage = 0.0802185 W
            Gate Leakage = 0.00327525 W
            Runtime Dynamic = 0.0168999 W

              Global Predictor:
                Area = 0.442563 mm^2
                Peak Dynamic = 0.0970644 W
                Subthreshold Leakage = 0.0280468 W
                Gate Leakage = 0.00110975 W
                Runtime Dynamic = 0.00545233 W

              Local Predictor:
              L1_Local Predictor:
                Area = 0.223592 mm^2
                Peak Dynamic = 0.0576889 W
                Subthreshold Leakage = 0.0152512 W
                Gate Leakage = 0.000630359 W
                Runtime Dynamic = 0.00346051 W

              L2_Local Predictor:
                Area = 0.126814 mm^2
                Peak Dynamic = 0.0374177 W
                Subthreshold Leakage = 0.00791691 W
                Gate Leakage = 0.0003635 W
                Runtime Dynamic = 0.00218305 W

              Chooser:
                Area = 0.442563 mm^2
                Peak Dynamic = 0.0970644 W
                Subthreshold Leakage = 0.0280468 W
                Gate Leakage = 0.00110975 W
                Runtime Dynamic = 0.00545233 W

              RAS:
                Area = 0.0391741 mm^2
                Peak Dynamic = 0.03251 W
                Subthreshold Leakage = 0.000956776 W
                Gate Leakage = 6.18858e-05 W
                Runtime Dynamic = 0.000351659 W

          Instruction Buffer:
            Area = 0.00867221 mm^2
            Peak Dynamic = 0.0578666 W
            Subthreshold Leakage = 0.00114838 W
            Gate Leakage = 6.74413e-05 W
            Runtime Dynamic = 0.0406182 W

          Instruction Decoder:
            Area = 1.93827 mm^2
            Peak Dynamic = 0.66585 W
            Subthreshold Leakage = 0.659852 W
            Gate Leakage = 0.0381395 W
            Runtime Dynamic = 0.467379 W

      Renaming Unit:
        Area = 0.27218 mm^2
        Peak Dynamic = 0.625722 W
        Subthreshold Leakage = 0.0420492 W
        Gate Leakage = 0.00758985 W
        Runtime Dynamic = 0.474259 W

          Int Front End RAT with 0 internal checkpoints:
            Area = 0.025747 mm^2
            Peak Dynamic = 0.0641387 W
            Subthreshold Leakage = 0.000517404 W
            Gate Leakage = 5.24626e-05 W
            Runtime Dynamic = 0.0241704 W

          FP Front End RAT with 0 internal checkpoints:
            Area = 0.025747 mm^2
            Peak Dynamic = 0.0641387 W
            Subthreshold Leakage = 0.000517404 W
            Gate Leakage = 5.24626e-05 W
            Runtime Dynamic = 0.00517028 W

          Free List:
            Area = 0.0404774 mm^2
            Peak Dynamic = 0.0288935 W
            Subthreshold Leakage = 0.00118094 W
            Gate Leakage = 8.40627e-05 W
            Runtime Dynamic = 0.0190923 W

          Int Retire RAT: 
            Area = 0.0099603 mm^2
            Peak Dynamic = 0.0114953 W
            Subthreshold Leakage = 0.000371946 W
            Gate Leakage = 3.81607e-05 W
            Runtime Dynamic = 0.00418077 W

          FP Retire RAT:
            Area = 0.0099603 mm^2
            Peak Dynamic = 0.0114953 W
            Subthreshold Leakage = 0.000371946 W
            Gate Leakage = 3.81607e-05 W
            Runtime Dynamic = 0.000894307 W

          FP Free List:
            Area = 0.0404774 mm^2
            Peak Dynamic = 0.0288935 W
            Subthreshold Leakage = 0.00118094 W
            Gate Leakage = 8.40627e-05 W
            Runtime Dynamic = 0.00408403 W

      Load Store Unit:
        Area = 15.4669 mm^2
        Peak Dynamic = 6.29199 W
        Subthreshold Leakage = 1.47586 W
        Gate Leakage = 0.110047 W
        Runtime Dynamic = 0.680197 W

          Data Cache:
            Area = 12.7324 mm^2
            Peak Dynamic = 5.65249 W
            Subthreshold Leakage = 1.34608 W
            Gate Leakage = 0.0959683 W
            Runtime Dynamic = 0.372314 W

          LoadQ:
            Area = 0.655618 mm^2
            Peak Dynamic = 0.295649 W
            Subthreshold Leakage = 0.0493864 W
            Gate Leakage = 0.00361371 W
            Runtime Dynamic = 0.0777118 W

          StoreQ:
            Area = 0.563883 mm^2
            Peak Dynamic = 0.239687 W
            Subthreshold Leakage = 0.0424807 W
            Gate Leakage = 0.00322446 W
            Runtime Dynamic = 0.126004 W

      Memory Management Unit:
        Area = 2.16636 mm^2
        Peak Dynamic = 0.983723 W
        Subthreshold Leakage = 0.217659 W
        Runtime Dynamic = 0.260417 W

          Itlb:
            Area = 0.544221 mm^2
            Peak Dynamic = 0.20623 W
            Subthreshold Leakage = 0.0754318 W
            Gate Leakage = 0.00460206 W
            Runtime Dynamic = 0 W

          Dtlb:
            Area = 1.50232 mm^2
            Peak Dynamic = 0.517076 W
            Subthreshold Leakage = 0.104318 W
            Gate Leakage = 0.00612156 W
            Runtime Dynamic = 0 W

      Execution Unit:
        Area = 31.8796 mm^2
        Peak Dynamic = 11.4436 W
        Subthreshold Leakage = 7.97253 W
        Runtime Dynamic = 2.78614 W

          Register Files:
            Area = 0.863237 mm^2
            Peak Dynamic = 0.70157 W
            Subthreshold Leakage = 0.0251501 W
            Gate Leakage = 0.001176 W
            Runtime Dynamic = 0.185455 W

              Integer RF:
                Area = 0.431618 mm^2
                Peak Dynamic = 0.548994 W
                Subthreshold Leakage = 0.0125751 W
                Gate Leakage = 0.000588002 W
                Runtime Dynamic = 0.148781 W

              Floating Point RF:
                Area = 0.431618 mm^2
                Peak Dynamic = 0.152576 W
                Subthreshold Leakage = 0.0125751 W
                Gate Leakage = 0.000588002 W
                Runtime Dynamic = 0.0366738 W

          Instruction Scheduler:
            Area = 0.264508 mm^2
            Peak Dynamic = 0.569689 W
            Subthreshold Leakage = 0.0152877 W
            Gate Leakage = 0.00113026 W
            Runtime Dynamic = 0.36113 W

              Instruction Window:
                Area = 0.0489064 mm^2
                Peak Dynamic = 0.136538 W
                Subthreshold Leakage = 0.0034861 W
                Gate Leakage = 0.000282353 W
                Runtime Dynamic = 0.138014 W

              FP Instruction Window:
                Area = 0.138043 mm^2
                Peak Dynamic = 0.287647 W
                Subthreshold Leakage = 0.00963312 W
                Gate Leakage = 0.000720471 W
                Runtime Dynamic = 0.0488921 W

              ROB:
                Area = 0.0775581 mm^2
                Peak Dynamic = 0.145503 W
                Subthreshold Leakage = 0.00216848 W
                Gate Leakage = 0.000127434 W
                Runtime Dynamic = 0.174224 W

          Integer ALUs (Count: 6 ):
            Area = 0.672672 mm^2
            Peak Dynamic = 2.72645 W
            Subthreshold Leakage = 0.599188 W
            Gate Leakage = 0.0454759 W
            Runtime Dynamic = 0.593582 W

          Floating Point Units (FPUs) (Count: 6 ):
            Area = 29.1588 mm^2
            Peak Dynamic = 2.45381 W
            Subthreshold Leakage = 6.49334 W
            Gate Leakage = 0.492818 W
            Runtime Dynamic = 0.696839 W

          Complex ALUs (Mul/Div) (Count: 2 ):
            Area = 0.672672 mm^2
            Peak Dynamic = 0.589168 W
            Subthreshold Leakage = 0.599188 W
            Gate Leakage = 0.0454759 W
            Runtime Dynamic = 0.288852 W

          Results Broadcast Bus:
            Area Overhead = 0.127985 mm^2
            Peak Dynamic = 3.98623 W
            Subthreshold Leakage = 0.202463 W
            Gate Leakage = 0.0153661 W
            Runtime Dynamic = 0.243621 W

*****************************************************************************************
L2
      Area = 17.8956 mm^2
      Peak Dynamic = 4.35018 W
      Subthreshold Leakage = 1.41855 W
      Gate Leakage = 0.0401246 W
      Runtime Dynamic = 0.00646136 W

*****************************************************************************************
BUSES
      Area = 0.685017 mm^2
      Peak Dynamic = 4.59175 W
      Subthreshold Leakage = 0.0625759 W
      Gate Leakage = 0.0070151 W
      Runtime Dynamic = 0.182832 W

      Bus: 
        Area = 0.685017 mm^2
        Peak Dynamic = 4.59175 W
        Subthreshold Leakage = 0.0625759 W
        Gate Leakage = 0.0070151 W
        Runtime Dynamic = 0.182832 W

*****************************************************************************************
