McPAT (version 1.3 of Feb, 2015) is computing the target processor...
 

McPAT (version 1.3 of Feb, 2015) results  (current print level is 5)
*****************************************************************************************
  Technology 65 nm
  Using Long Channel Devices When Appropriate
  Interconnect metal projection= aggressive interconnect technology projection
  Core clock Rate(MHz) 3194

*****************************************************************************************
Processor: 
  Area = 94.1401 mm^2
  Peak Power = 78.7932 W
  Total Leakage = 17.6082 W
  Peak Dynamic = 61.185 W
  Subthreshold Leakage = 16.4128 W
  Gate Leakage = 1.19543 W
  Runtime Dynamic = 11.5423 W

  Total Cores: 1 cores 
  Device Type= ITRS high performance device type
    Area = 74.8921 mm^2
    Peak Dynamic = 47.4497 W
    Subthreshold Leakage = 14.9363 W
    Gate Leakage = 1.14881 W
    Runtime Dynamic = 11.232 W

  Total L2s: 
  Device Type= ITRS high performance device type
    Area = 17.8956 mm^2
    Peak Dynamic = 6.94723 W
    Subthreshold Leakage = 1.41855 W
    Gate Leakage = 0.0401246 W
    Runtime Dynamic = 0.0116734 W

  Total NoCs (Network/Bus): 
  Device Type= ITRS high performance device type
    Area = 1.3524 mm^2
    Peak Dynamic = 6.7881 W
    Subthreshold Leakage = 0.0579258 W
    Gate Leakage = 0.0064938 W
    Runtime Dynamic = 0.298581 W

*****************************************************************************************
Core:
      Area = 74.8921 mm^2
      Peak Dynamic = 47.4497 W
      Subthreshold Leakage = 14.9363 W
      Gate Leakage = 1.14881 W
      Runtime Dynamic = 11.232 W

      Instruction Fetch Unit:
        Area = 13.0282 mm^2
        Peak Dynamic = 7.37159 W
        Subthreshold Leakage = 1.25437 W
        Gate Leakage = 0.085184 W
        Runtime Dynamic = 1.59884 W

          Instruction Cache:
            Area = 3.22286 mm^2
            Peak Dynamic = 2.39329 W
            Subthreshold Leakage = 0.353467 W
            Gate Leakage = 0.0257461 W
            Runtime Dynamic = 0.135018 W

          Branch Target Buffer:
            Area = 2.7845 mm^2
            Peak Dynamic = 0.896551 W
            Subthreshold Leakage = 0.0786345 W
            Gate Leakage = 0.00322936 W
            Runtime Dynamic = 0.0379004 W

          Branch Predictor:
            Area = 2.87604 mm^2
            Peak Dynamic = 1.13406 W
            Subthreshold Leakage = 0.0824653 W
            Gate Leakage = 0.00317596 W
            Runtime Dynamic = 0.0312173 W

              Global Predictor:
                Area = 1.33904 mm^2
                Peak Dynamic = 0.467628 W
                Subthreshold Leakage = 0.0396263 W
                Gate Leakage = 0.00146082 W
                Runtime Dynamic = 0.0145238 W

              Local Predictor:
              L1_Local Predictor:
                Area = 0.0322074 mm^2
                Peak Dynamic = 0.0146585 W
                Subthreshold Leakage = 0.00053943 W
                Gate Leakage = 5.41145e-05 W
                Runtime Dynamic = 0.000575688 W

              L2_Local Predictor:
                Area = 0.0322074 mm^2
                Peak Dynamic = 0.0146585 W
                Subthreshold Leakage = 0.00053943 W
                Gate Leakage = 5.41145e-05 W
                Runtime Dynamic = 0.000575688 W

              Chooser:
                Area = 1.33904 mm^2
                Peak Dynamic = 0.467628 W
                Subthreshold Leakage = 0.0396263 W
                Gate Leakage = 0.00146082 W
                Runtime Dynamic = 0.0145238 W

              RAS:
                Area = 0.133546 mm^2
                Peak Dynamic = 0.169487 W
                Subthreshold Leakage = 0.00213386 W
                Gate Leakage = 0.000146093 W
                Runtime Dynamic = 0.0010184 W

          Instruction Buffer:
            Area = 0.0240454 mm^2
            Peak Dynamic = 0.48192 W
            Subthreshold Leakage = 0.00268701 W
            Gate Leakage = 0.000136196 W
            Runtime Dynamic = 0.195022 W

          Instruction Decoder:
            Area = 3.87654 mm^2
            Peak Dynamic = 2.12673 W
            Subthreshold Leakage = 0.659852 W
            Gate Leakage = 0.0381395 W
            Runtime Dynamic = 0.860637 W

      Renaming Unit:
        Area = 1.22428 mm^2
        Peak Dynamic = 3.99572 W
        Subthreshold Leakage = 0.0868931 W
        Gate Leakage = 0.0153257 W
        Runtime Dynamic = 1.73096 W

          Int Front End RAT with 0 internal checkpoints:
            Area = 0.0546296 mm^2
            Peak Dynamic = 0.947689 W
            Subthreshold Leakage = 0.00072753 W
            Gate Leakage = 5.33898e-05 W
            Runtime Dynamic = 0.210396 W

          FP Front End RAT with 0 internal checkpoints:
            Area = 0.0546296 mm^2
            Peak Dynamic = 0.947689 W
            Subthreshold Leakage = 0.00072753 W
            Gate Leakage = 5.33898e-05 W
            Runtime Dynamic = 0.0431697 W

          Free List:
            Area = 0.33559 mm^2
            Peak Dynamic = 0.184783 W
            Subthreshold Leakage = 0.00312138 W
            Gate Leakage = 0.000159407 W
            Runtime Dynamic = 0.0776617 W

          Int Retire RAT: 
            Area = 0.167447 mm^2
            Peak Dynamic = 0.32467 W
            Subthreshold Leakage = 0.0013944 W
            Gate Leakage = 8.91613e-05 W
            Runtime Dynamic = 0.0253185 W

          FP Retire RAT:
            Area = 0.0322074 mm^2
            Peak Dynamic = 0.0499236 W
            Subthreshold Leakage = 0.00053943 W
            Gate Leakage = 5.41145e-05 W
            Runtime Dynamic = 0.00229885 W

          FP Free List:
            Area = 0.33559 mm^2
            Peak Dynamic = 0.184783 W
            Subthreshold Leakage = 0.00312138 W
            Gate Leakage = 0.000159407 W
            Runtime Dynamic = 0.0159349 W

      Load Store Unit:
        Area = 15.5117 mm^2
        Peak Dynamic = 10.1431 W
        Subthreshold Leakage = 1.50918 W
        Gate Leakage = 0.117234 W
        Runtime Dynamic = 1.37286 W

          Data Cache:
            Area = 12.7324 mm^2
            Peak Dynamic = 9.02702 W
            Subthreshold Leakage = 1.34608 W
            Gate Leakage = 0.0959683 W
            Runtime Dynamic = 0.665863 W

          LoadQ:
            Area = 0.549477 mm^2
            Peak Dynamic = 0.371135 W
            Subthreshold Leakage = 0.0416137 W
            Gate Leakage = 0.00317903 W
            Runtime Dynamic = 0.115431 W

          StoreQ:
            Area = 0.597754 mm^2
            Peak Dynamic = 0.405944 W
            Subthreshold Leakage = 0.0442184 W
            Gate Leakage = 0.00332956 W
            Runtime Dynamic = 0.252515 W

      Memory Management Unit:
        Area = 2.29073 mm^2
        Peak Dynamic = 2.00273 W
        Subthreshold Leakage = 0.257011 W
        Runtime Dynamic = 0.847614 W

          Itlb:
            Area = 0.544221 mm^2
            Peak Dynamic = 0.329349 W
            Subthreshold Leakage = 0.0754318 W
            Gate Leakage = 0.00460206 W
            Runtime Dynamic = 0 W

          Dtlb:
            Area = 1.50232 mm^2
            Peak Dynamic = 0.82577 W
            Subthreshold Leakage = 0.104318 W
            Gate Leakage = 0.00612156 W
            Runtime Dynamic = 0 W

      Execution Unit:
        Area = 34.371 mm^2
        Peak Dynamic = 23.9365 W
        Subthreshold Leakage = 8.0582 W
        Runtime Dynamic = 5.68173 W

          Register Files:
            Area = 2.71919 mm^2
            Peak Dynamic = 4.05293 W
            Subthreshold Leakage = 0.0475276 W
            Gate Leakage = 0.00260308 W
            Runtime Dynamic = 0.607693 W

              Integer RF:
                Area = 1.3596 mm^2
                Peak Dynamic = 3.20974 W
                Subthreshold Leakage = 0.0237638 W
                Gate Leakage = 0.00130154 W
                Runtime Dynamic = 0.492882 W

              Floating Point RF:
                Area = 1.3596 mm^2
                Peak Dynamic = 0.843195 W
                Subthreshold Leakage = 0.0237638 W
                Gate Leakage = 0.00130154 W
                Runtime Dynamic = 0.114811 W

          Instruction Scheduler:
            Area = 0.773275 mm^2
            Peak Dynamic = 2.98893 W
            Subthreshold Leakage = 0.0359008 W
            Gate Leakage = 0.00265904 W
            Runtime Dynamic = 0.949618 W

              Instruction Window:
                Area = 0.114037 mm^2
                Peak Dynamic = 0.372347 W
                Subthreshold Leakage = 0.00583336 W
                Gate Leakage = 0.000467089 W
                Runtime Dynamic = 0.200121 W

              FP Instruction Window:
                Area = 0.348389 mm^2
                Peak Dynamic = 1.05782 W
                Subthreshold Leakage = 0.0235035 W
                Gate Leakage = 0.00180702 W
                Runtime Dynamic = 0.108618 W

              ROB:
                Area = 0.310849 mm^2
                Peak Dynamic = 1.55876 W
                Subthreshold Leakage = 0.00656394 W
                Gate Leakage = 0.000384931 W
                Runtime Dynamic = 0.640879 W

          Integer ALUs (Count: 6 ):
            Area = 0.672672 mm^2
            Peak Dynamic = 4.28866 W
            Subthreshold Leakage = 0.599188 W
            Gate Leakage = 0.0454759 W
            Runtime Dynamic = 1.00739 W

          Floating Point Units (FPUs) (Count: 6 ):
            Area = 29.1588 mm^2
            Peak Dynamic = 3.85979 W
            Subthreshold Leakage = 6.49334 W
            Gate Leakage = 0.492818 W
            Runtime Dynamic = 0.980273 W

          Complex ALUs (Mul/Div) (Count: 2 ):
            Area = 0.672672 mm^2
            Peak Dynamic = 0.901609 W
            Subthreshold Leakage = 0.599188 W
            Gate Leakage = 0.0454759 W
            Runtime Dynamic = 0.341934 W

          Results Broadcast Bus:
            Area Overhead = 0.130232 mm^2
            Peak Dynamic = 6.48837 W
            Subthreshold Leakage = 0.205789 W
            Gate Leakage = 0.0156185 W
            Runtime Dynamic = 0.438638 W

*****************************************************************************************
L2
      Area = 17.8956 mm^2
      Peak Dynamic = 6.94723 W
      Subthreshold Leakage = 1.41855 W
      Gate Leakage = 0.0401246 W
      Runtime Dynamic = 0.0116734 W

*****************************************************************************************
BUSES
      Area = 1.3524 mm^2
      Peak Dynamic = 6.7881 W
      Subthreshold Leakage = 0.0579258 W
      Gate Leakage = 0.0064938 W
      Runtime Dynamic = 0.298581 W

      Bus: 
        Area = 1.3524 mm^2
        Peak Dynamic = 6.7881 W
        Subthreshold Leakage = 0.0579258 W
        Gate Leakage = 0.0064938 W
        Runtime Dynamic = 0.298581 W

*****************************************************************************************
