McPAT (version 1.3 of Feb, 2015) is computing the target processor...
 

McPAT (version 1.3 of Feb, 2015) results  (current print level is 5)
*****************************************************************************************
  Technology 65 nm
  Using Long Channel Devices When Appropriate
  Interconnect metal projection= aggressive interconnect technology projection
  Core clock Rate(MHz) 4000

*****************************************************************************************
Processor: 
  Area = 83.8862 mm^2
  Peak Power = 77.8494 W
  Total Leakage = 17.3117 W
  Peak Dynamic = 60.5377 W
  Subthreshold Leakage = 16.1605 W
  Gate Leakage = 1.1512 W
  Runtime Dynamic = 9.01328 W

  Total Cores: 1 cores 
  Device Type= ITRS high performance device type
    Area = 64.7145 mm^2
    Peak Dynamic = 43.816 W
    Subthreshold Leakage = 14.6873 W
    Gate Leakage = 1.10494 W
    Runtime Dynamic = 8.66863 W

  Total L2s: 
  Device Type= ITRS high performance device type
    Area = 17.8956 mm^2
    Peak Dynamic = 8.70035 W
    Subthreshold Leakage = 1.41855 W
    Gate Leakage = 0.0401246 W
    Runtime Dynamic = 0.0721773 W

  Total NoCs (Network/Bus): 
  Device Type= ITRS high performance device type
    Area = 1.27607 mm^2
    Peak Dynamic = 8.0213 W
    Subthreshold Leakage = 0.0546567 W
    Gate Leakage = 0.00612732 W
    Runtime Dynamic = 0.272477 W

*****************************************************************************************
Core:
      Area = 64.7145 mm^2
      Peak Dynamic = 43.816 W
      Subthreshold Leakage = 14.6873 W
      Gate Leakage = 1.10494 W
      Runtime Dynamic = 8.66863 W

      Instruction Fetch Unit:
        Area = 7.61087 mm^2
        Peak Dynamic = 5.24382 W
        Subthreshold Leakage = 1.32406 W
        Gate Leakage = 0.0805314 W
        Runtime Dynamic = 1.19555 W

          Instruction Cache:
            Area = 4.44346 mm^2
            Peak Dynamic = 3.133 W
            Subthreshold Leakage = 0.574222 W
            Gate Leakage = 0.0335599 W
            Runtime Dynamic = 0.127595 W

          Branch Target Buffer:
            Area = 1.03533 mm^2
            Peak Dynamic = 0.387669 W
            Subthreshold Leakage = 0.0528128 W
            Gate Leakage = 0.00213695 W
            Runtime Dynamic = 0.0204188 W

          Branch Predictor:
            Area = 0.0790153 mm^2
            Peak Dynamic = 0.0911905 W
            Subthreshold Leakage = 0.00244456 W
            Gate Leakage = 0.000214529 W
            Runtime Dynamic = 0.0019416 W

              Global Predictor:
                Area = 0.0099603 mm^2
                Peak Dynamic = 0.00654262 W
                Subthreshold Leakage = 0.000371946 W
                Gate Leakage = 3.81607e-05 W
                Runtime Dynamic = 0.000335395 W

              Local Predictor:
              L1_Local Predictor:
                Area = 0.0099603 mm^2
                Peak Dynamic = 0.00654262 W
                Subthreshold Leakage = 0.000371946 W
                Gate Leakage = 3.81607e-05 W
                Runtime Dynamic = 0.000335395 W

              L2_Local Predictor:
                Area = 0.0099603 mm^2
                Peak Dynamic = 0.00654262 W
                Subthreshold Leakage = 0.000371946 W
                Gate Leakage = 3.81607e-05 W
                Runtime Dynamic = 0.000335395 W

              Chooser:
                Area = 0.0099603 mm^2
                Peak Dynamic = 0.00654262 W
                Subthreshold Leakage = 0.000371946 W
                Gate Leakage = 3.81607e-05 W
                Runtime Dynamic = 0.000335395 W

              RAS:
                Area = 0.0391741 mm^2
                Peak Dynamic = 0.06502 W
                Subthreshold Leakage = 0.000956776 W
                Gate Leakage = 6.18858e-05 W
                Runtime Dynamic = 0.000600017 W

          Instruction Buffer:
            Area = 0.00867221 mm^2
            Peak Dynamic = 0.115733 W
            Subthreshold Leakage = 0.00114838 W
            Gate Leakage = 6.74413e-05 W
            Runtime Dynamic = 0.0688494 W

          Instruction Decoder:
            Area = 1.93827 mm^2
            Peak Dynamic = 1.3317 W
            Subthreshold Leakage = 0.659852 W
            Gate Leakage = 0.0381395 W
            Runtime Dynamic = 0.792226 W

      Renaming Unit:
        Area = 0.258487 mm^2
        Peak Dynamic = 1.1562 W
        Subthreshold Leakage = 0.0377168 W
        Gate Leakage = 0.00676237 W
        Runtime Dynamic = 0.834145 W

          Int Front End RAT with 0 internal checkpoints:
            Area = 0.025747 mm^2
            Peak Dynamic = 0.128277 W
            Subthreshold Leakage = 0.000517404 W
            Gate Leakage = 5.24626e-05 W
            Runtime Dynamic = 0.0400886 W

          FP Front End RAT with 0 internal checkpoints:
            Area = 0.025747 mm^2
            Peak Dynamic = 0.128277 W
            Subthreshold Leakage = 0.000517404 W
            Gate Leakage = 5.24626e-05 W
            Runtime Dynamic = 0.00870159 W

          Free List:
            Area = 0.0404774 mm^2
            Peak Dynamic = 0.057787 W
            Subthreshold Leakage = 0.00118094 W
            Gate Leakage = 8.40627e-05 W
            Runtime Dynamic = 0.031825 W

          Int Retire RAT: 
            Area = 0.0099603 mm^2
            Peak Dynamic = 0.0229905 W
            Subthreshold Leakage = 0.000371946 W
            Gate Leakage = 3.81607e-05 W
            Runtime Dynamic = 0.00700585 W

          FP Retire RAT:
            Area = 0.0099603 mm^2
            Peak Dynamic = 0.0229905 W
            Subthreshold Leakage = 0.000371946 W
            Gate Leakage = 3.81607e-05 W
            Runtime Dynamic = 0.00152068 W

          FP Free List:
            Area = 0.0404774 mm^2
            Peak Dynamic = 0.057787 W
            Subthreshold Leakage = 0.00118094 W
            Gate Leakage = 8.40627e-05 W
            Runtime Dynamic = 0.0069079 W

      Load Store Unit:
        Area = 14.1547 mm^2
        Peak Dynamic = 12.2468 W
        Subthreshold Leakage = 1.35856 W
        Gate Leakage = 0.105687 W
        Runtime Dynamic = 1.3197 W

          Data Cache:
            Area = 11.6098 mm^2
            Peak Dynamic = 11.0745 W
            Subthreshold Leakage = 1.23828 W
            Gate Leakage = 0.0927196 W
            Runtime Dynamic = 0.809967 W

          LoadQ:
            Area = 0.563883 mm^2
            Peak Dynamic = 0.479375 W
            Subthreshold Leakage = 0.0424807 W
            Gate Leakage = 0.00322446 W
            Runtime Dynamic = 0.104199 W

          StoreQ:
            Area = 0.597754 mm^2
            Peak Dynamic = 0.508383 W
            Subthreshold Leakage = 0.0442184 W
            Gate Leakage = 0.00332956 W
            Runtime Dynamic = 0.221008 W

      Memory Management Unit:
        Area = 2.15266 mm^2
        Peak Dynamic = 1.90792 W
        Subthreshold Leakage = 0.213326 W
        Runtime Dynamic = 0.461309 W

          Itlb:
            Area = 0.544221 mm^2
            Peak Dynamic = 0.41246 W
            Subthreshold Leakage = 0.0754318 W
            Gate Leakage = 0.00460206 W
            Runtime Dynamic = 0 W

          Dtlb:
            Area = 1.50232 mm^2
            Peak Dynamic = 1.03415 W
            Subthreshold Leakage = 0.104318 W
            Gate Leakage = 0.00612156 W
            Runtime Dynamic = 0 W

      Execution Unit:
        Area = 32.0716 mm^2
        Peak Dynamic = 23.2613 W
        Subthreshold Leakage = 7.983 W
        Runtime Dynamic = 4.85792 W

          Register Files:
            Area = 0.863237 mm^2
            Peak Dynamic = 1.40314 W
            Subthreshold Leakage = 0.0251501 W
            Gate Leakage = 0.001176 W
            Runtime Dynamic = 0.312734 W

              Integer RF:
                Area = 0.431618 mm^2
                Peak Dynamic = 1.09799 W
                Subthreshold Leakage = 0.0125751 W
                Gate Leakage = 0.000588002 W
                Runtime Dynamic = 0.250136 W

              Floating Point RF:
                Area = 0.431618 mm^2
                Peak Dynamic = 0.305152 W
                Subthreshold Leakage = 0.0125751 W
                Gate Leakage = 0.000588002 W
                Runtime Dynamic = 0.0625982 W

          Instruction Scheduler:
            Area = 0.46988 mm^2
            Peak Dynamic = 1.86611 W
            Subthreshold Leakage = 0.0295861 W
            Gate Leakage = 0.00188701 W
            Runtime Dynamic = 1.17074 W

              Instruction Window:
                Area = 0.0754639 mm^2
                Peak Dynamic = 0.453487 W
                Subthreshold Leakage = 0.00532684 W
                Gate Leakage = 0.00044012 W
                Runtime Dynamic = 0.40473 W

              FP Instruction Window:
                Area = 0.182972 mm^2
                Peak Dynamic = 0.809889 W
                Subthreshold Leakage = 0.0126927 W
                Gate Leakage = 0.000934927 W
                Runtime Dynamic = 0.111132 W

              ROB:
                Area = 0.211444 mm^2
                Peak Dynamic = 0.602731 W
                Subthreshold Leakage = 0.0115665 W
                Gate Leakage = 0.000511965 W
                Runtime Dynamic = 0.654875 W

          Integer ALUs (Count: 6 ):
            Area = 0.672672 mm^2
            Peak Dynamic = 5.34321 W
            Subthreshold Leakage = 0.599188 W
            Gate Leakage = 0.0454759 W
            Runtime Dynamic = 0.929777 W

          Floating Point Units (FPUs) (Count: 6 ):
            Area = 29.1588 mm^2
            Peak Dynamic = 4.80889 W
            Subthreshold Leakage = 6.49334 W
            Gate Leakage = 0.492818 W
            Runtime Dynamic = 0.952267 W

          Complex ALUs (Mul/Div) (Count: 2 ):
            Area = 0.672672 mm^2
            Peak Dynamic = 1.11252 W
            Subthreshold Leakage = 0.599188 W
            Gate Leakage = 0.0454759 W
            Runtime Dynamic = 0.337909 W

          Results Broadcast Bus:
            Area Overhead = 0.128277 mm^2
            Peak Dynamic = 7.98935 W
            Subthreshold Leakage = 0.202972 W
            Gate Leakage = 0.0154047 W
            Runtime Dynamic = 0.416403 W

*****************************************************************************************
L2
      Area = 17.8956 mm^2
      Peak Dynamic = 8.70035 W
      Subthreshold Leakage = 1.41855 W
      Gate Leakage = 0.0401246 W
      Runtime Dynamic = 0.0721773 W

*****************************************************************************************
BUSES
      Area = 1.27607 mm^2
      Peak Dynamic = 8.0213 W
      Subthreshold Leakage = 0.0546567 W
      Gate Leakage = 0.00612732 W
      Runtime Dynamic = 0.272477 W

      Bus: 
        Area = 1.27607 mm^2
        Peak Dynamic = 8.0213 W
        Subthreshold Leakage = 0.0546567 W
        Gate Leakage = 0.00612732 W
        Runtime Dynamic = 0.272477 W

*****************************************************************************************
