McPAT (version 1.3 of Feb, 2015) is computing the target processor...
 

McPAT (version 1.3 of Feb, 2015) results  (current print level is 5)
*****************************************************************************************
  Technology 65 nm
  Using Long Channel Devices When Appropriate
  Interconnect metal projection= aggressive interconnect technology projection
  Core clock Rate(MHz) 1000

*****************************************************************************************
Processor: 
  Area = 117.736 mm^2
  Peak Power = 63.925 W
  Total Leakage = 17.7405 W
  Peak Dynamic = 46.1845 W
  Subthreshold Leakage = 16.4211 W
  Gate Leakage = 1.31933 W
  Runtime Dynamic = 7.1783 W

  Total Cores: 1 cores 
  Device Type= ITRS high performance device type
    Area = 109.882 mm^2
    Peak Dynamic = 41.8293 W
    Subthreshold Leakage = 15.8993 W
    Gate Leakage = 1.28233 W
    Runtime Dynamic = 7.0651 W

  Total L2s: 
  Device Type= ITRS high performance device type
    Area = 7.04507 mm^2
    Peak Dynamic = 1.64239 W
    Subthreshold Leakage = 0.447928 W
    Gate Leakage = 0.02871 W
    Runtime Dynamic = 0.00128864 W

  Total NoCs (Network/Bus): 
  Device Type= ITRS high performance device type
    Area = 0.809423 mm^2
    Peak Dynamic = 2.71283 W
    Subthreshold Leakage = 0.0739403 W
    Gate Leakage = 0.00828911 W
    Runtime Dynamic = 0.11191 W

*****************************************************************************************
Core:
      Area = 109.882 mm^2
      Peak Dynamic = 41.8293 W
      Subthreshold Leakage = 15.8993 W
      Gate Leakage = 1.28233 W
      Runtime Dynamic = 7.0651 W

      Instruction Fetch Unit:
        Area = 21.2969 mm^2
        Peak Dynamic = 6.257 W
        Subthreshold Leakage = 1.35294 W
        Gate Leakage = 0.106094 W
        Runtime Dynamic = 0.872767 W

          Instruction Cache:
            Area = 3.22286 mm^2
            Peak Dynamic = 0.749307 W
            Subthreshold Leakage = 0.353467 W
            Gate Leakage = 0.0257461 W
            Runtime Dynamic = 0.0299938 W

          Branch Target Buffer:
            Area = 8.82038 mm^2
            Peak Dynamic = 0.909198 W
            Subthreshold Leakage = 0.137821 W
            Gate Leakage = 0.00601162 W
            Runtime Dynamic = 0.0153171 W

          Branch Predictor:
            Area = 0.785259 mm^2
            Peak Dynamic = 0.268496 W
            Subthreshold Leakage = 0.00926587 W
            Gate Leakage = 0.000660513 W
            Runtime Dynamic = 0.00173327 W

              Global Predictor:
                Area = 0.0783228 mm^2
                Peak Dynamic = 0.0201859 W
                Subthreshold Leakage = 0.000800707 W
                Gate Leakage = 5.66636e-05 W
                Runtime Dynamic = 0.000300401 W

              Local Predictor:
              L1_Local Predictor:
                Area = 0.0783228 mm^2
                Peak Dynamic = 0.0201859 W
                Subthreshold Leakage = 0.000800707 W
                Gate Leakage = 5.66636e-05 W
                Runtime Dynamic = 0.000300401 W

              L2_Local Predictor:
                Area = 0.0783228 mm^2
                Peak Dynamic = 0.0201859 W
                Subthreshold Leakage = 0.000800707 W
                Gate Leakage = 5.66636e-05 W
                Runtime Dynamic = 0.000300401 W

              Chooser:
                Area = 0.0783228 mm^2
                Peak Dynamic = 0.0201859 W
                Subthreshold Leakage = 0.000800707 W
                Gate Leakage = 5.66636e-05 W
                Runtime Dynamic = 0.000300401 W

              RAS:
                Area = 0.471968 mm^2
                Peak Dynamic = 0.187753 W
                Subthreshold Leakage = 0.00606304 W
                Gate Leakage = 0.000433858 W
                Runtime Dynamic = 0.000531667 W

          Instruction Buffer:
            Area = 0.134881 mm^2
            Peak Dynamic = 2.74599 W
            Subthreshold Leakage = 0.00888299 W
            Gate Leakage = 0.000460212 W
            Runtime Dynamic = 0.33194 W

          Instruction Decoder:
            Area = 7.75308 mm^2
            Peak Dynamic = 1.3317 W
            Subthreshold Leakage = 0.659852 W
            Gate Leakage = 0.0381395 W
            Runtime Dynamic = 0.241468 W

      Renaming Unit:
        Area = 3.16804 mm^2
        Peak Dynamic = 8.00694 W
        Subthreshold Leakage = 0.200445 W
        Gate Leakage = 0.0360159 W
        Runtime Dynamic = 1.35863 W

          Int Front End RAT with 0 internal checkpoints:
            Area = 0.184722 mm^2
            Peak Dynamic = 2.5721 W
            Subthreshold Leakage = 0.00161077 W
            Gate Leakage = 0.000106646 W
            Runtime Dynamic = 0.249839 W

          FP Front End RAT with 0 internal checkpoints:
            Area = 0.390059 mm^2
            Peak Dynamic = 3.90701 W
            Subthreshold Leakage = 0.00248417 W
            Gate Leakage = 0.000162095 W
            Runtime Dynamic = 0.0556081 W

          Free List:
            Area = 0.638934 mm^2
            Peak Dynamic = 0.141789 W
            Subthreshold Leakage = 0.00431075 W
            Gate Leakage = 0.000214634 W
            Runtime Dynamic = 0.0277932 W

          Int Retire RAT: 
            Area = 0.167447 mm^2
            Peak Dynamic = 0.10165 W
            Subthreshold Leakage = 0.0013944 W
            Gate Leakage = 8.91613e-05 W
            Runtime Dynamic = 0.00710161 W

          FP Retire RAT:
            Area = 0.167447 mm^2
            Peak Dynamic = 0.10165 W
            Subthreshold Leakage = 0.0013944 W
            Gate Leakage = 8.91613e-05 W
            Runtime Dynamic = 0.00155966 W

          FP Free List:
            Area = 1.03902 mm^2
            Peak Dynamic = 0.173478 W
            Subthreshold Leakage = 0.00560401 W
            Gate Leakage = 0.000278072 W
            Runtime Dynamic = 0.00747128 W

      Load Store Unit:
        Area = 15.9647 mm^2
        Peak Dynamic = 3.35348 W
        Subthreshold Leakage = 1.62334 W
        Gate Leakage = 0.137988 W
        Runtime Dynamic = 0.557643 W

          Data Cache:
            Area = 12.7324 mm^2
            Peak Dynamic = 2.82624 W
            Subthreshold Leakage = 1.34608 W
            Gate Leakage = 0.0959683 W
            Runtime Dynamic = 0.199315 W

          LoadQ:
            Area = 0.655618 mm^2
            Peak Dynamic = 0.147825 W
            Subthreshold Leakage = 0.0493864 W
            Gate Leakage = 0.00361371 W
            Runtime Dynamic = 0.0389819 W

          StoreQ:
            Area = 0.597754 mm^2
            Peak Dynamic = 0.127096 W
            Subthreshold Leakage = 0.0442184 W
            Gate Leakage = 0.00332956 W
            Runtime Dynamic = 0.0670312 W

      Memory Management Unit:
        Area = 2.62696 mm^2
        Peak Dynamic = 0.99244 W
        Subthreshold Leakage = 0.363396 W
        Runtime Dynamic = 0.630787 W

          Itlb:
            Area = 0.544221 mm^2
            Peak Dynamic = 0.103115 W
            Subthreshold Leakage = 0.0754318 W
            Gate Leakage = 0.00460206 W
            Runtime Dynamic = 0 W

          Dtlb:
            Area = 1.50232 mm^2
            Peak Dynamic = 0.258538 W
            Subthreshold Leakage = 0.104318 W
            Gate Leakage = 0.00612156 W
            Runtime Dynamic = 0 W

      Execution Unit:
        Area = 58.3591 mm^2
        Peak Dynamic = 23.2195 W
        Subthreshold Leakage = 8.58849 W
        Runtime Dynamic = 3.64527 W

          Register Files:
            Area = 19.9578 mm^2
            Peak Dynamic = 9.13823 W
            Subthreshold Leakage = 0.194556 W
            Gate Leakage = 0.0123226 W
            Runtime Dynamic = 0.43476 W

              Integer RF:
                Area = 9.9789 mm^2
                Peak Dynamic = 7.38152 W
                Subthreshold Leakage = 0.097278 W
                Gate Leakage = 0.00616128 W
                Runtime Dynamic = 0.349632 W

              Floating Point RF:
                Area = 9.9789 mm^2
                Peak Dynamic = 1.75671 W
                Subthreshold Leakage = 0.097278 W
                Gate Leakage = 0.00616128 W
                Runtime Dynamic = 0.085128 W

          Instruction Scheduler:
            Area = 7.1519 mm^2
            Peak Dynamic = 7.40634 W
            Subthreshold Leakage = 0.263591 W
            Gate Leakage = 0.0197388 W
            Runtime Dynamic = 0.894513 W

              Instruction Window:
                Area = 1.05982 mm^2
                Peak Dynamic = 1.61033 W
                Subthreshold Leakage = 0.0417052 W
                Gate Leakage = 0.00322235 W
                Runtime Dynamic = 0.320513 W

              FP Instruction Window:
                Area = 3.64694 mm^2
                Peak Dynamic = 3.75592 W
                Subthreshold Leakage = 0.19384 W
                Gate Leakage = 0.0146767 W
                Runtime Dynamic = 0.112151 W

              ROB:
                Area = 2.44514 mm^2
                Peak Dynamic = 2.04009 W
                Subthreshold Leakage = 0.0280457 W
                Gate Leakage = 0.00183972 W
                Runtime Dynamic = 0.461849 W

          Integer ALUs (Count: 6 ):
            Area = 0.672672 mm^2
            Peak Dynamic = 1.41807 W
            Subthreshold Leakage = 0.599188 W
            Gate Leakage = 0.0454759 W
            Runtime Dynamic = 0.359617 W

          Floating Point Units (FPUs) (Count: 6 ):
            Area = 29.1588 mm^2
            Peak Dynamic = 1.27627 W
            Subthreshold Leakage = 6.49334 W
            Gate Leakage = 0.492818 W
            Runtime Dynamic = 0.519591 W

          Complex ALUs (Mul/Div) (Count: 2 ):
            Area = 0.672672 mm^2
            Peak Dynamic = 0.327493 W
            Subthreshold Leakage = 0.599188 W
            Gate Leakage = 0.0454759 W
            Runtime Dynamic = 0.255373 W

          Results Broadcast Bus:
            Area Overhead = 0.164903 mm^2
            Peak Dynamic = 2.6438 W
            Subthreshold Leakage = 0.25498 W
            Gate Leakage = 0.0193519 W
            Runtime Dynamic = 0.172157 W

*****************************************************************************************
L2
      Area = 7.04507 mm^2
      Peak Dynamic = 1.64239 W
      Subthreshold Leakage = 0.447928 W
      Gate Leakage = 0.02871 W
      Runtime Dynamic = 0.00128864 W

*****************************************************************************************
BUSES
      Area = 0.809423 mm^2
      Peak Dynamic = 2.71283 W
      Subthreshold Leakage = 0.0739403 W
      Gate Leakage = 0.00828911 W
      Runtime Dynamic = 0.11191 W

      Bus: 
        Area = 0.809423 mm^2
        Peak Dynamic = 2.71283 W
        Subthreshold Leakage = 0.0739403 W
        Gate Leakage = 0.00828911 W
        Runtime Dynamic = 0.11191 W

*****************************************************************************************
