McPAT (version 1.3 of Feb, 2015) is computing the target processor...
 

McPAT (version 1.3 of Feb, 2015) results  (current print level is 5)
*****************************************************************************************
  Technology 65 nm
  Using Long Channel Devices When Appropriate
  Interconnect metal projection= aggressive interconnect technology projection
  Core clock Rate(MHz) 1000

*****************************************************************************************
Processor: 
  Area = 134.885 mm^2
  Peak Power = 61.3212 W
  Total Leakage = 19.7603 W
  Peak Dynamic = 41.5609 W
  Subthreshold Leakage = 18.4246 W
  Gate Leakage = 1.33569 W
  Runtime Dynamic = 7.66246 W

  Total Cores: 1 cores 
  Device Type= ITRS high performance device type
    Area = 99.7734 mm^2
    Peak Dynamic = 36.2763 W
    Subthreshold Leakage = 15.9962 W
    Gate Leakage = 1.27705 W
    Runtime Dynamic = 7.52789 W

  Total L2s: 
  Device Type= ITRS high performance device type
    Area = 34.2451 mm^2
    Peak Dynamic = 2.38026 W
    Subthreshold Leakage = 2.3493 W
    Gate Leakage = 0.0497633 W
    Runtime Dynamic = 0.00327755 W

  Total NoCs (Network/Bus): 
  Device Type= ITRS high performance device type
    Area = 0.866564 mm^2
    Peak Dynamic = 2.90434 W
    Subthreshold Leakage = 0.0791601 W
    Gate Leakage = 0.00887428 W
    Runtime Dynamic = 0.131299 W

*****************************************************************************************
Core:
      Area = 99.7734 mm^2
      Peak Dynamic = 36.2763 W
      Subthreshold Leakage = 15.9962 W
      Gate Leakage = 1.27705 W
      Runtime Dynamic = 7.52789 W

      Instruction Fetch Unit:
        Area = 8.15603 mm^2
        Peak Dynamic = 4.3251 W
        Subthreshold Leakage = 1.32925 W
        Gate Leakage = 0.102995 W
        Runtime Dynamic = 0.935608 W

          Instruction Cache:
            Area = 3.22286 mm^2
            Peak Dynamic = 0.749307 W
            Subthreshold Leakage = 0.353467 W
            Gate Leakage = 0.0257461 W
            Runtime Dynamic = 0.0407035 W

          Branch Target Buffer:
            Area = 1.03533 mm^2
            Peak Dynamic = 0.0969172 W
            Subthreshold Leakage = 0.0528128 W
            Gate Leakage = 0.00213695 W
            Runtime Dynamic = 0.00803436 W

          Branch Predictor:
            Area = 1.27471 mm^2
            Peak Dynamic = 0.160873 W
            Subthreshold Leakage = 0.0802185 W
            Gate Leakage = 0.00327525 W
            Runtime Dynamic = 0.00933381 W

              Global Predictor:
                Area = 0.442563 mm^2
                Peak Dynamic = 0.0485322 W
                Subthreshold Leakage = 0.0280468 W
                Gate Leakage = 0.00110975 W
                Runtime Dynamic = 0.00300884 W

              Local Predictor:
              L1_Local Predictor:
                Area = 0.223592 mm^2
                Peak Dynamic = 0.0288444 W
                Subthreshold Leakage = 0.0152512 W
                Gate Leakage = 0.000630359 W
                Runtime Dynamic = 0.00191122 W

              L2_Local Predictor:
                Area = 0.126814 mm^2
                Peak Dynamic = 0.0187089 W
                Subthreshold Leakage = 0.00791691 W
                Gate Leakage = 0.0003635 W
                Runtime Dynamic = 0.00120528 W

              Chooser:
                Area = 0.442563 mm^2
                Peak Dynamic = 0.0485322 W
                Subthreshold Leakage = 0.0280468 W
                Gate Leakage = 0.00110975 W
                Runtime Dynamic = 0.00300884 W

              RAS:
                Area = 0.0391741 mm^2
                Peak Dynamic = 0.016255 W
                Subthreshold Leakage = 0.000956776 W
                Gate Leakage = 6.18858e-05 W
                Runtime Dynamic = 0.000199633 W

          Instruction Buffer:
            Area = 0.134881 mm^2
            Peak Dynamic = 2.74599 W
            Subthreshold Leakage = 0.00888299 W
            Gate Leakage = 0.000460212 W
            Runtime Dynamic = 0.369592 W

          Instruction Decoder:
            Area = 1.93827 mm^2
            Peak Dynamic = 0.332925 W
            Subthreshold Leakage = 0.659852 W
            Gate Leakage = 0.0381395 W
            Runtime Dynamic = 0.268857 W

      Renaming Unit:
        Area = 1.88211 mm^2
        Peak Dynamic = 1.49519 W
        Subthreshold Leakage = 0.185401 W
        Gate Leakage = 0.0339565 W
        Runtime Dynamic = 0.999943 W

          Int Front End RAT with 0 internal checkpoints:
            Area = 0.025747 mm^2
            Peak Dynamic = 0.0320694 W
            Subthreshold Leakage = 0.000517404 W
            Gate Leakage = 5.24626e-05 W
            Runtime Dynamic = 0.0135645 W

          FP Front End RAT with 0 internal checkpoints:
            Area = 0.390059 mm^2
            Peak Dynamic = 0.330977 W
            Subthreshold Leakage = 0.00248417 W
            Gate Leakage = 0.000162095 W
            Runtime Dynamic = 0.00520885 W

          Free List:
            Area = 0.0653613 mm^2
            Peak Dynamic = 0.0175214 W
            Subthreshold Leakage = 0.00173675 W
            Gate Leakage = 0.0001089 W
            Runtime Dynamic = 0.0130271 W

          Int Retire RAT: 
            Area = 0.0322074 mm^2
            Peak Dynamic = 0.0156304 W
            Subthreshold Leakage = 0.00053943 W
            Gate Leakage = 5.41145e-05 W
            Runtime Dynamic = 0.00345894 W

          FP Retire RAT:
            Area = 0.167447 mm^2
            Peak Dynamic = 0.10165 W
            Subthreshold Leakage = 0.0013944 W
            Gate Leakage = 8.91613e-05 W
            Runtime Dynamic = 0.00169345 W

          FP Free List:
            Area = 0.651304 mm^2
            Peak Dynamic = 0.0409888 W
            Subthreshold Leakage = 0.0047102 W
            Gate Leakage = 0.000252498 W
            Runtime Dynamic = 0.00664127 W

      Load Store Unit:
        Area = 17.1586 mm^2
        Peak Dynamic = 3.38808 W
        Subthreshold Leakage = 1.74649 W
        Gate Leakage = 0.139866 W
        Runtime Dynamic = 0.619089 W

          Data Cache:
            Area = 13.9853 mm^2
            Peak Dynamic = 2.91295 W
            Subthreshold Leakage = 1.48837 W
            Gate Leakage = 0.100226 W
            Runtime Dynamic = 0.274244 W

          LoadQ:
            Area = 0.563883 mm^2
            Peak Dynamic = 0.119844 W
            Subthreshold Leakage = 0.0424807 W
            Gate Leakage = 0.00322446 W
            Runtime Dynamic = 0.0359822 W

          StoreQ:
            Area = 0.549477 mm^2
            Peak Dynamic = 0.116198 W
            Subthreshold Leakage = 0.0416137 W
            Gate Leakage = 0.00317903 W
            Runtime Dynamic = 0.069775 W

      Memory Management Unit:
        Area = 2.59653 mm^2
        Peak Dynamic = 0.959371 W
        Subthreshold Leakage = 0.353769 W
        Runtime Dynamic = 0.597718 W

          Itlb:
            Area = 0.544221 mm^2
            Peak Dynamic = 0.103115 W
            Subthreshold Leakage = 0.0754318 W
            Gate Leakage = 0.00460206 W
            Runtime Dynamic = 0 W

          Dtlb:
            Area = 1.50232 mm^2
            Peak Dynamic = 0.258538 W
            Subthreshold Leakage = 0.104318 W
            Gate Leakage = 0.00612156 W
            Runtime Dynamic = 0 W

      Execution Unit:
        Area = 61.514 mm^2
        Peak Dynamic = 26.1085 W
        Subthreshold Leakage = 8.6106 W
        Runtime Dynamic = 4.37553 W

          Register Files:
            Area = 19.9578 mm^2
            Peak Dynamic = 9.13823 W
            Subthreshold Leakage = 0.194556 W
            Gate Leakage = 0.0123226 W
            Runtime Dynamic = 0.484789 W

              Integer RF:
                Area = 9.9789 mm^2
                Peak Dynamic = 7.38152 W
                Subthreshold Leakage = 0.097278 W
                Gate Leakage = 0.00616128 W
                Runtime Dynamic = 0.39142 W

              Floating Point RF:
                Area = 9.9789 mm^2
                Peak Dynamic = 1.75671 W
                Subthreshold Leakage = 0.097278 W
                Gate Leakage = 0.00616128 W
                Runtime Dynamic = 0.0933686 W

          Instruction Scheduler:
            Area = 10.3361 mm^2
            Peak Dynamic = 10.3314 W
            Subthreshold Leakage = 0.293564 W
            Gate Leakage = 0.0212828 W
            Runtime Dynamic = 1.55864 W

              Instruction Window:
                Area = 1.59696 mm^2
                Peak Dynamic = 2.71732 W
                Subthreshold Leakage = 0.0470725 W
                Gate Leakage = 0.00365979 W
                Runtime Dynamic = 0.619471 W

              FP Instruction Window:
                Area = 4.70416 mm^2
                Peak Dynamic = 5.1277 W
                Subthreshold Leakage = 0.202368 W
                Gate Leakage = 0.0152176 W
                Runtime Dynamic = 0.160235 W

              ROB:
                Area = 4.03503 mm^2
                Peak Dynamic = 2.48634 W
                Subthreshold Leakage = 0.0441244 W
                Gate Leakage = 0.00240536 W
                Runtime Dynamic = 0.778931 W

          Integer ALUs (Count: 6 ):
            Area = 0.672672 mm^2
            Peak Dynamic = 1.41807 W
            Subthreshold Leakage = 0.599188 W
            Gate Leakage = 0.0454759 W
            Runtime Dynamic = 0.389147 W

          Floating Point Units (FPUs) (Count: 6 ):
            Area = 29.1588 mm^2
            Peak Dynamic = 1.27627 W
            Subthreshold Leakage = 6.49334 W
            Gate Leakage = 0.492818 W
            Runtime Dynamic = 0.538004 W

          Complex ALUs (Mul/Div) (Count: 2 ):
            Area = 0.672672 mm^2
            Peak Dynamic = 0.327493 W
            Subthreshold Leakage = 0.599188 W
            Gate Leakage = 0.0454759 W
            Runtime Dynamic = 0.258823 W

          Results Broadcast Bus:
            Area Overhead = 0.165988 mm^2
            Peak Dynamic = 2.66077 W
            Subthreshold Leakage = 0.256739 W
            Gate Leakage = 0.0194854 W
            Runtime Dynamic = 0.189781 W

*****************************************************************************************
L2
      Area = 34.2451 mm^2
      Peak Dynamic = 2.38026 W
      Subthreshold Leakage = 2.3493 W
      Gate Leakage = 0.0497633 W
      Runtime Dynamic = 0.00327755 W

*****************************************************************************************
BUSES
      Area = 0.866564 mm^2
      Peak Dynamic = 2.90434 W
      Subthreshold Leakage = 0.0791601 W
      Gate Leakage = 0.00887428 W
      Runtime Dynamic = 0.131299 W

      Bus: 
        Area = 0.866564 mm^2
        Peak Dynamic = 2.90434 W
        Subthreshold Leakage = 0.0791601 W
        Gate Leakage = 0.00887428 W
        Runtime Dynamic = 0.131299 W

*****************************************************************************************
