McPAT (version 1.3 of Feb, 2015) is computing the target processor...
 

McPAT (version 1.3 of Feb, 2015) results  (current print level is 5)
*****************************************************************************************
  Technology 65 nm
  Using Long Channel Devices When Appropriate
  Interconnect metal projection= aggressive interconnect technology projection
  Core clock Rate(MHz) 3194

*****************************************************************************************
Processor: 
  Area = 133.984 mm^2
  Peak Power = 172.519 W
  Total Leakage = 18.184 W
  Peak Dynamic = 154.334 W
  Subthreshold Leakage = 16.8612 W
  Gate Leakage = 1.32287 W
  Runtime Dynamic = 23.1377 W

  Total Cores: 1 cores 
  Device Type= ITRS high performance device type
    Area = 118.915 mm^2
    Peak Dynamic = 140.211 W
    Subthreshold Leakage = 15.9167 W
    Gate Leakage = 1.28124 W
    Runtime Dynamic = 22.7634 W

  Total L2s: 
  Device Type= ITRS high performance device type
    Area = 13.4536 mm^2
    Peak Dynamic = 6.01535 W
    Subthreshold Leakage = 0.875281 W
    Gate Leakage = 0.0338801 W
    Runtime Dynamic = 0.0491497 W

  Total NoCs (Network/Bus): 
  Device Type= ITRS high performance device type
    Area = 1.61529 mm^2
    Peak Dynamic = 8.10766 W
    Subthreshold Leakage = 0.0691862 W
    Gate Leakage = 0.00775615 W
    Runtime Dynamic = 0.325184 W

*****************************************************************************************
Core:
      Area = 118.915 mm^2
      Peak Dynamic = 140.211 W
      Subthreshold Leakage = 15.9167 W
      Gate Leakage = 1.28124 W
      Runtime Dynamic = 22.7634 W

      Instruction Fetch Unit:
        Area = 30.4368 mm^2
        Peak Dynamic = 22.9829 W
        Subthreshold Leakage = 1.47531 W
        Gate Leakage = 0.10984 W
        Runtime Dynamic = 2.96029 W

          Instruction Cache:
            Area = 3.22286 mm^2
            Peak Dynamic = 2.39329 W
            Subthreshold Leakage = 0.353467 W
            Gate Leakage = 0.0257461 W
            Runtime Dynamic = 0.131795 W

          Branch Target Buffer:
            Area = 8.82038 mm^2
            Peak Dynamic = 2.90398 W
            Subthreshold Leakage = 0.137821 W
            Gate Leakage = 0.00601162 W
            Runtime Dynamic = 0.0590584 W

          Branch Predictor:
            Area = 9.93472 mm^2
            Peak Dynamic = 3.86885 W
            Subthreshold Leakage = 0.134653 W
            Gate Leakage = 0.00498073 W
            Runtime Dynamic = 0.0502458 W

              Global Predictor:
                Area = 4.65305 mm^2
                Peak Dynamic = 1.57011 W
                Subthreshold Leakage = 0.0634943 W
                Gate Leakage = 0.00221677 W
                Runtime Dynamic = 0.0232137 W

              Local Predictor:
              L1_Local Predictor:
                Area = 0.0783228 mm^2
                Peak Dynamic = 0.0644737 W
                Subthreshold Leakage = 0.000800707 W
                Gate Leakage = 5.66636e-05 W
                Runtime Dynamic = 0.00108367 W

              L2_Local Predictor:
                Area = 0.0783228 mm^2
                Peak Dynamic = 0.0644737 W
                Subthreshold Leakage = 0.000800707 W
                Gate Leakage = 5.66636e-05 W
                Runtime Dynamic = 0.00108367 W

              Chooser:
                Area = 4.65305 mm^2
                Peak Dynamic = 1.57011 W
                Subthreshold Leakage = 0.0634943 W
                Gate Leakage = 0.00221677 W
                Runtime Dynamic = 0.0232137 W

              RAS:
                Area = 0.471968 mm^2
                Peak Dynamic = 0.599682 W
                Subthreshold Leakage = 0.00606304 W
                Gate Leakage = 0.000433858 W
                Runtime Dynamic = 0.00165105 W

          Instruction Buffer:
            Area = 0.134881 mm^2
            Peak Dynamic = 8.77068 W
            Subthreshold Leakage = 0.00888299 W
            Gate Leakage = 0.000460212 W
            Runtime Dynamic = 1.11523 W

          Instruction Decoder:
            Area = 7.75308 mm^2
            Peak Dynamic = 4.25345 W
            Subthreshold Leakage = 0.659852 W
            Gate Leakage = 0.0381395 W
            Runtime Dynamic = 0.811267 W

      Renaming Unit:
        Area = 2.17724 mm^2
        Peak Dynamic = 24.9602 W
        Subthreshold Leakage = 0.19423 W
        Gate Leakage = 0.0353307 W
        Runtime Dynamic = 4.31637 W

          Int Front End RAT with 0 internal checkpoints:
            Area = 0.184722 mm^2
            Peak Dynamic = 8.21529 W
            Subthreshold Leakage = 0.00161077 W
            Gate Leakage = 0.000106646 W
            Runtime Dynamic = 0.870411 W

          FP Front End RAT with 0 internal checkpoints:
            Area = 0.390059 mm^2
            Peak Dynamic = 12.479 W
            Subthreshold Leakage = 0.00248417 W
            Gate Leakage = 0.000162095 W
            Runtime Dynamic = 0.176626 W

          Free List:
            Area = 0.285406 mm^2
            Peak Dynamic = 0.325203 W
            Subthreshold Leakage = 0.00324653 W
            Gate Leakage = 0.00018717 W
            Runtime Dynamic = 0.0684651 W

          Int Retire RAT: 
            Area = 0.0099603 mm^2
            Peak Dynamic = 0.0183579 W
            Subthreshold Leakage = 0.000371946 W
            Gate Leakage = 3.81607e-05 W
            Runtime Dynamic = 0.0072658 W

          FP Retire RAT:
            Area = 0.167447 mm^2
            Peak Dynamic = 0.32467 W
            Subthreshold Leakage = 0.0013944 W
            Gate Leakage = 8.91613e-05 W
            Runtime Dynamic = 0.00482996 W

          FP Free List:
            Area = 0.568743 mm^2
            Peak Dynamic = 0.426934 W
            Subthreshold Leakage = 0.00448473 W
            Gate Leakage = 0.000245996 W
            Runtime Dynamic = 0.018012 W

      Load Store Unit:
        Area = 14.6195 mm^2
        Peak Dynamic = 10.4244 W
        Subthreshold Leakage = 1.50562 W
        Gate Leakage = 0.133775 W
        Runtime Dynamic = 1.88653 W

          Data Cache:
            Area = 11.6098 mm^2
            Peak Dynamic = 8.84298 W
            Subthreshold Leakage = 1.23828 W
            Gate Leakage = 0.0927196 W
            Runtime Dynamic = 0.727348 W

          LoadQ:
            Area = 0.597754 mm^2
            Peak Dynamic = 0.405944 W
            Subthreshold Leakage = 0.0442184 W
            Gate Leakage = 0.00332956 W
            Runtime Dynamic = 0.126995 W

          StoreQ:
            Area = 0.563883 mm^2
            Peak Dynamic = 0.382781 W
            Subthreshold Leakage = 0.0424807 W
            Gate Leakage = 0.00322446 W
            Runtime Dynamic = 0.239498 W

      Memory Management Unit:
        Area = 2.61745 mm^2
        Peak Dynamic = 3.13685 W
        Subthreshold Leakage = 0.360388 W
        Runtime Dynamic = 1.98173 W

          Itlb:
            Area = 0.544221 mm^2
            Peak Dynamic = 0.329349 W
            Subthreshold Leakage = 0.0754318 W
            Gate Leakage = 0.00460206 W
            Runtime Dynamic = 0 W

          Dtlb:
            Area = 1.50232 mm^2
            Peak Dynamic = 0.82577 W
            Subthreshold Leakage = 0.104318 W
            Gate Leakage = 0.00612156 W
            Runtime Dynamic = 0 W

      Execution Unit:
        Area = 60.5979 mm^2
        Peak Dynamic = 78.7071 W
        Subthreshold Leakage = 8.6105 W
        Runtime Dynamic = 11.6185 W

          Register Files:
            Area = 19.9578 mm^2
            Peak Dynamic = 29.1875 W
            Subthreshold Leakage = 0.194556 W
            Gate Leakage = 0.0123226 W
            Runtime Dynamic = 1.44774 W

              Integer RF:
                Area = 9.9789 mm^2
                Peak Dynamic = 23.5766 W
                Subthreshold Leakage = 0.097278 W
                Gate Leakage = 0.00616128 W
                Runtime Dynamic = 1.18145 W

              Floating Point RF:
                Area = 9.9789 mm^2
                Peak Dynamic = 5.61094 W
                Subthreshold Leakage = 0.097278 W
                Gate Leakage = 0.00616128 W
                Runtime Dynamic = 0.266288 W

          Instruction Scheduler:
            Area = 9.39897 mm^2
            Peak Dynamic = 28.7923 W
            Subthreshold Leakage = 0.286786 W
            Gate Leakage = 0.0208032 W
            Runtime Dynamic = 4.23261 W

              Instruction Window:
                Area = 1.27297 mm^2
                Peak Dynamic = 7.04306 W
                Subthreshold Leakage = 0.0444694 W
                Gate Leakage = 0.00344557 W
                Runtime Dynamic = 1.53421 W

              FP Instruction Window:
                Area = 4.09098 mm^2
                Peak Dynamic = 14.3214 W
                Subthreshold Leakage = 0.198192 W
                Gate Leakage = 0.0149523 W
                Runtime Dynamic = 0.416047 W

              ROB:
                Area = 4.03503 mm^2
                Peak Dynamic = 7.42793 W
                Subthreshold Leakage = 0.0441244 W
                Gate Leakage = 0.00240536 W
                Runtime Dynamic = 2.28236 W

          Integer ALUs (Count: 6 ):
            Area = 0.672672 mm^2
            Peak Dynamic = 4.28866 W
            Subthreshold Leakage = 0.599188 W
            Gate Leakage = 0.0454759 W
            Runtime Dynamic = 0.968326 W

          Floating Point Units (FPUs) (Count: 6 ):
            Area = 29.1588 mm^2
            Peak Dynamic = 3.85979 W
            Subthreshold Leakage = 6.49334 W
            Gate Leakage = 0.492818 W
            Runtime Dynamic = 0.929371 W

          Complex ALUs (Mul/Div) (Count: 2 ):
            Area = 0.672672 mm^2
            Peak Dynamic = 0.901609 W
            Subthreshold Leakage = 0.599188 W
            Gate Leakage = 0.0454759 W
            Runtime Dynamic = 0.331131 W

          Results Broadcast Bus:
            Area Overhead = 0.166086 mm^2
            Peak Dynamic = 8.50641 W
            Subthreshold Leakage = 0.256803 W
            Gate Leakage = 0.0194903 W
            Runtime Dynamic = 0.538521 W

*****************************************************************************************
L2
      Area = 13.4536 mm^2
      Peak Dynamic = 6.01535 W
      Subthreshold Leakage = 0.875281 W
      Gate Leakage = 0.0338801 W
      Runtime Dynamic = 0.0491497 W

*****************************************************************************************
BUSES
      Area = 1.61529 mm^2
      Peak Dynamic = 8.10766 W
      Subthreshold Leakage = 0.0691862 W
      Gate Leakage = 0.00775615 W
      Runtime Dynamic = 0.325184 W

      Bus: 
        Area = 1.61529 mm^2
        Peak Dynamic = 8.10766 W
        Subthreshold Leakage = 0.0691862 W
        Gate Leakage = 0.00775615 W
        Runtime Dynamic = 0.325184 W

*****************************************************************************************
