McPAT (version 1.3 of Feb, 2015) is computing the target processor...
 

McPAT (version 1.3 of Feb, 2015) results  (current print level is 5)
*****************************************************************************************
  Technology 65 nm
  Using Long Channel Devices When Appropriate
  Interconnect metal projection= aggressive interconnect technology projection
  Core clock Rate(MHz) 3802

*****************************************************************************************
Processor: 
  Area = 94.4178 mm^2
  Peak Power = 95.3744 W
  Total Leakage = 16.8602 W
  Peak Dynamic = 78.5142 W
  Subthreshold Leakage = 15.6989 W
  Gate Leakage = 1.16129 W
  Runtime Dynamic = 10.4357 W

  Total Cores: 1 cores 
  Device Type= ITRS high performance device type
    Area = 79.6098 mm^2
    Peak Dynamic = 63.2615 W
    Subthreshold Leakage = 14.7656 W
    Gate Leakage = 1.1209 W
    Runtime Dynamic = 10.1568 W

  Total L2s: 
  Device Type= ITRS high performance device type
    Area = 13.4536 mm^2
    Peak Dynamic = 7.16042 W
    Subthreshold Leakage = 0.875281 W
    Gate Leakage = 0.0338801 W
    Runtime Dynamic = 0.0144445 W

  Total NoCs (Network/Bus): 
  Device Type= ITRS high performance device type
    Area = 1.3544 mm^2
    Peak Dynamic = 8.09226 W
    Subthreshold Leakage = 0.0580118 W
    Gate Leakage = 0.00650344 W
    Runtime Dynamic = 0.264466 W

*****************************************************************************************
Core:
      Area = 79.6098 mm^2
      Peak Dynamic = 63.2615 W
      Subthreshold Leakage = 14.7656 W
      Gate Leakage = 1.1209 W
      Runtime Dynamic = 10.1568 W

      Instruction Fetch Unit:
        Area = 21.2894 mm^2
        Peak Dynamic = 12.8247 W
        Subthreshold Leakage = 1.30553 W
        Gate Leakage = 0.0833843 W
        Runtime Dynamic = 1.28829 W

          Instruction Cache:
            Area = 3.76459 mm^2
            Peak Dynamic = 2.91368 W
            Subthreshold Leakage = 0.447624 W
            Gate Leakage = 0.0289891 W
            Runtime Dynamic = 0.147785 W

          Branch Target Buffer:
            Area = 8.82038 mm^2
            Peak Dynamic = 3.45677 W
            Subthreshold Leakage = 0.137821 W
            Gate Leakage = 0.00601162 W
            Runtime Dynamic = 0.0630981 W

          Branch Predictor:
            Area = 0.785259 mm^2
            Peak Dynamic = 1.02082 W
            Subthreshold Leakage = 0.00926587 W
            Gate Leakage = 0.000660513 W
            Runtime Dynamic = 0.00591571 W

              Global Predictor:
                Area = 0.0783228 mm^2
                Peak Dynamic = 0.0767468 W
                Subthreshold Leakage = 0.000800707 W
                Gate Leakage = 5.66636e-05 W
                Runtime Dynamic = 0.00107857 W

              Local Predictor:
              L1_Local Predictor:
                Area = 0.0783228 mm^2
                Peak Dynamic = 0.0767468 W
                Subthreshold Leakage = 0.000800707 W
                Gate Leakage = 5.66636e-05 W
                Runtime Dynamic = 0.00107857 W

              L2_Local Predictor:
                Area = 0.0783228 mm^2
                Peak Dynamic = 0.0767468 W
                Subthreshold Leakage = 0.000800707 W
                Gate Leakage = 5.66636e-05 W
                Runtime Dynamic = 0.00107857 W

              Chooser:
                Area = 0.0783228 mm^2
                Peak Dynamic = 0.0767468 W
                Subthreshold Leakage = 0.000800707 W
                Gate Leakage = 5.66636e-05 W
                Runtime Dynamic = 0.00107857 W

              RAS:
                Area = 0.471968 mm^2
                Peak Dynamic = 0.713836 W
                Subthreshold Leakage = 0.00606304 W
                Gate Leakage = 0.000433858 W
                Runtime Dynamic = 0.00160142 W

          Instruction Buffer:
            Area = 0.00867221 mm^2
            Peak Dynamic = 0.110004 W
            Subthreshold Leakage = 0.00114838 W
            Gate Leakage = 6.74413e-05 W
            Runtime Dynamic = 0.0648645 W

          Instruction Decoder:
            Area = 7.75308 mm^2
            Peak Dynamic = 5.06313 W
            Subthreshold Leakage = 0.659852 W
            Gate Leakage = 0.0381395 W
            Runtime Dynamic = 0.746372 W

      Renaming Unit:
        Area = 1.06825 mm^2
        Peak Dynamic = 14.1923 W
        Subthreshold Leakage = 0.0591682 W
        Gate Leakage = 0.0100962 W
        Runtime Dynamic = 2.21092 W

          Int Front End RAT with 0 internal checkpoints:
            Area = 0.184722 mm^2
            Peak Dynamic = 9.77913 W
            Subthreshold Leakage = 0.00161077 W
            Gate Leakage = 0.000106646 W
            Runtime Dynamic = 0.88406 W

          FP Front End RAT with 0 internal checkpoints:
            Area = 0.025747 mm^2
            Peak Dynamic = 2.38794 W
            Subthreshold Leakage = 0.000517404 W
            Gate Leakage = 5.24626e-05 W
            Runtime Dynamic = 0.169923 W

          Free List:
            Area = 0.480797 mm^2
            Peak Dynamic = 0.478367 W
            Subthreshold Leakage = 0.00388838 W
            Gate Leakage = 0.000203822 W
            Runtime Dynamic = 0.0862139 W

          Int Retire RAT: 
            Area = 0.0783228 mm^2
            Peak Dynamic = 0.189577 W
            Subthreshold Leakage = 0.000800707 W
            Gate Leakage = 5.66636e-05 W
            Runtime Dynamic = 0.0178009 W

          FP Retire RAT:
            Area = 0.0099603 mm^2
            Peak Dynamic = 0.0218525 W
            Subthreshold Leakage = 0.000371946 W
            Gate Leakage = 3.81607e-05 W
            Runtime Dynamic = 0.00146071 W

          FP Free List:
            Area = 0.131231 mm^2
            Peak Dynamic = 0.294417 W
            Subthreshold Leakage = 0.00215625 W
            Gate Leakage = 0.000122342 W
            Runtime Dynamic = 0.0104386 W

      Load Store Unit:
        Area = 14.5312 mm^2
        Peak Dynamic = 11.7287 W
        Subthreshold Leakage = 1.40732 W
        Gate Leakage = 0.109697 W
        Runtime Dynamic = 1.11353 W

          Data Cache:
            Area = 11.9681 mm^2
            Peak Dynamic = 10.5848 W
            Subthreshold Leakage = 1.27427 W
            Gate Leakage = 0.093823 W
            Runtime Dynamic = 0.551728 W

          LoadQ:
            Area = 0.549477 mm^2
            Peak Dynamic = 0.441783 W
            Subthreshold Leakage = 0.0416137 W
            Gate Leakage = 0.00317903 W
            Runtime Dynamic = 0.100514 W

          StoreQ:
            Area = 0.549477 mm^2
            Peak Dynamic = 0.441783 W
            Subthreshold Leakage = 0.0416137 W
            Gate Leakage = 0.00317903 W
            Runtime Dynamic = 0.201028 W

      Memory Management Unit:
        Area = 2.20401 mm^2
        Peak Dynamic = 2.02564 W
        Subthreshold Leakage = 0.229573 W
        Runtime Dynamic = 0.65064 W

          Itlb:
            Area = 0.544221 mm^2
            Peak Dynamic = 0.392043 W
            Subthreshold Leakage = 0.0754318 W
            Gate Leakage = 0.00460206 W
            Runtime Dynamic = 0 W

          Dtlb:
            Area = 1.50232 mm^2
            Peak Dynamic = 0.982962 W
            Subthreshold Leakage = 0.104318 W
            Gate Leakage = 0.00612156 W
            Runtime Dynamic = 0 W

      Execution Unit:
        Area = 32.0507 mm^2
        Peak Dynamic = 22.4902 W
        Subthreshold Leakage = 7.99338 W
        Runtime Dynamic = 4.89341 W

          Register Files:
            Area = 0.863237 mm^2
            Peak Dynamic = 1.33369 W
            Subthreshold Leakage = 0.0251501 W
            Gate Leakage = 0.001176 W
            Runtime Dynamic = 0.295295 W

              Integer RF:
                Area = 0.431618 mm^2
                Peak Dynamic = 1.04364 W
                Subthreshold Leakage = 0.0125751 W
                Gate Leakage = 0.000588002 W
                Runtime Dynamic = 0.237865 W

              Floating Point RF:
                Area = 0.431618 mm^2
                Peak Dynamic = 0.290047 W
                Subthreshold Leakage = 0.0125751 W
                Gate Leakage = 0.000588002 W
                Runtime Dynamic = 0.0574301 W

          Instruction Scheduler:
            Area = 0.398393 mm^2
            Peak Dynamic = 1.85557 W
            Subthreshold Leakage = 0.0246858 W
            Gate Leakage = 0.00151479 W
            Runtime Dynamic = 1.06178 W

              Instruction Window:
                Area = 0.0489064 mm^2
                Peak Dynamic = 0.25956 W
                Subthreshold Leakage = 0.0034861 W
                Gate Leakage = 0.000282353 W
                Runtime Dynamic = 0.23669 W

              FP Instruction Window:
                Area = 0.138043 mm^2
                Peak Dynamic = 0.546818 W
                Subthreshold Leakage = 0.00963312 W
                Gate Leakage = 0.000720471 W
                Runtime Dynamic = 0.0796685 W

              ROB:
                Area = 0.211444 mm^2
                Peak Dynamic = 1.04919 W
                Subthreshold Leakage = 0.0115665 W
                Gate Leakage = 0.000511965 W
                Runtime Dynamic = 0.745426 W

          Integer ALUs (Count: 6 ):
            Area = 0.672672 mm^2
            Peak Dynamic = 5.08415 W
            Subthreshold Leakage = 0.599188 W
            Gate Leakage = 0.0454759 W
            Runtime Dynamic = 0.88692 W

          Floating Point Units (FPUs) (Count: 6 ):
            Area = 29.1588 mm^2
            Peak Dynamic = 4.57573 W
            Subthreshold Leakage = 6.49334 W
            Gate Leakage = 0.492818 W
            Runtime Dynamic = 0.903139 W

          Complex ALUs (Mul/Div) (Count: 2 ):
            Area = 0.672672 mm^2
            Peak Dynamic = 1.06071 W
            Subthreshold Leakage = 0.599188 W
            Gate Leakage = 0.0454759 W
            Runtime Dynamic = 0.327772 W

          Results Broadcast Bus:
            Area Overhead = 0.127522 mm^2
            Peak Dynamic = 7.53938 W
            Subthreshold Leakage = 0.202 W
            Gate Leakage = 0.015331 W
            Runtime Dynamic = 0.377477 W

*****************************************************************************************
L2
      Area = 13.4536 mm^2
      Peak Dynamic = 7.16042 W
      Subthreshold Leakage = 0.875281 W
      Gate Leakage = 0.0338801 W
      Runtime Dynamic = 0.0144445 W

*****************************************************************************************
BUSES
      Area = 1.3544 mm^2
      Peak Dynamic = 8.09226 W
      Subthreshold Leakage = 0.0580118 W
      Gate Leakage = 0.00650344 W
      Runtime Dynamic = 0.264466 W

      Bus: 
        Area = 1.3544 mm^2
        Peak Dynamic = 8.09226 W
        Subthreshold Leakage = 0.0580118 W
        Gate Leakage = 0.00650344 W
        Runtime Dynamic = 0.264466 W

*****************************************************************************************
