McPAT (version 1.3 of Feb, 2015) is computing the target processor...
 

McPAT (version 1.3 of Feb, 2015) results  (current print level is 5)
*****************************************************************************************
  Technology 65 nm
  Using Long Channel Devices When Appropriate
  Interconnect metal projection= aggressive interconnect technology projection
  Core clock Rate(MHz) 2398

*****************************************************************************************
Processor: 
  Area = 78.3522 mm^2
  Peak Power = 57.6743 W
  Total Leakage = 16.6818 W
  Peak Dynamic = 40.9925 W
  Subthreshold Leakage = 15.5098 W
  Gate Leakage = 1.17203 W
  Runtime Dynamic = 7.48565 W

  Total Cores: 1 cores 
  Device Type= ITRS high performance device type
    Area = 68.758 mm^2
    Peak Dynamic = 31.439 W
    Subthreshold Leakage = 14.8351 W
    Gate Leakage = 1.13442 W
    Runtime Dynamic = 7.27067 W

  Total L2s: 
  Device Type= ITRS high performance device type
    Area = 8.93442 mm^2
    Peak Dynamic = 4.25075 W
    Subthreshold Leakage = 0.614388 W
    Gate Leakage = 0.0308482 W
    Runtime Dynamic = 0.00430534 W

  Total NoCs (Network/Bus): 
  Device Type= ITRS high performance device type
    Area = 0.659793 mm^2
    Peak Dynamic = 5.30278 W
    Subthreshold Leakage = 0.0602716 W
    Gate Leakage = 0.00675678 W
    Runtime Dynamic = 0.210675 W

*****************************************************************************************
Core:
      Area = 68.758 mm^2
      Peak Dynamic = 31.439 W
      Subthreshold Leakage = 14.8351 W
      Gate Leakage = 1.13442 W
      Runtime Dynamic = 7.27067 W

      Instruction Fetch Unit:
        Area = 7.69528 mm^2
        Peak Dynamic = 3.78375 W
        Subthreshold Leakage = 1.21234 W
        Gate Leakage = 0.0815245 W
        Runtime Dynamic = 1.01711 W

          Instruction Cache:
            Area = 3.22286 mm^2
            Peak Dynamic = 1.79684 W
            Subthreshold Leakage = 0.353467 W
            Gate Leakage = 0.0257461 W
            Runtime Dynamic = 0.0808966 W

          Branch Target Buffer:
            Area = 1.03533 mm^2
            Peak Dynamic = 0.232407 W
            Subthreshold Leakage = 0.0528128 W
            Gate Leakage = 0.00213695 W
            Runtime Dynamic = 0.0161756 W

          Branch Predictor:
            Area = 1.27471 mm^2
            Peak Dynamic = 0.385773 W
            Subthreshold Leakage = 0.0802185 W
            Gate Leakage = 0.00327525 W
            Runtime Dynamic = 0.0188263 W

              Global Predictor:
                Area = 0.442563 mm^2
                Peak Dynamic = 0.11638 W
                Subthreshold Leakage = 0.0280468 W
                Gate Leakage = 0.00110975 W
                Runtime Dynamic = 0.00606099 W

              Local Predictor:
              L1_Local Predictor:
                Area = 0.223592 mm^2
                Peak Dynamic = 0.069169 W
                Subthreshold Leakage = 0.0152512 W
                Gate Leakage = 0.000630359 W
                Runtime Dynamic = 0.00385414 W

              L2_Local Predictor:
                Area = 0.126814 mm^2
                Peak Dynamic = 0.0448639 W
                Subthreshold Leakage = 0.00791691 W
                Gate Leakage = 0.0003635 W
                Runtime Dynamic = 0.00242945 W

              Chooser:
                Area = 0.442563 mm^2
                Peak Dynamic = 0.11638 W
                Subthreshold Leakage = 0.0280468 W
                Gate Leakage = 0.00110975 W
                Runtime Dynamic = 0.00606099 W

              RAS:
                Area = 0.0391741 mm^2
                Peak Dynamic = 0.0389795 W
                Subthreshold Leakage = 0.000956776 W
                Gate Leakage = 6.18858e-05 W
                Runtime Dynamic = 0.000420703 W

          Instruction Buffer:
            Area = 0.0240454 mm^2
            Peak Dynamic = 0.361817 W
            Subthreshold Leakage = 0.00268701 W
            Gate Leakage = 0.000136196 W
            Runtime Dynamic = 0.127961 W

          Instruction Decoder:
            Area = 1.93827 mm^2
            Peak Dynamic = 0.798355 W
            Subthreshold Leakage = 0.659852 W
            Gate Leakage = 0.0381395 W
            Runtime Dynamic = 0.564697 W

      Renaming Unit:
        Area = 0.544421 mm^2
        Peak Dynamic = 1.26411 W
        Subthreshold Leakage = 0.0696588 W
        Gate Leakage = 0.0125502 W
        Runtime Dynamic = 0.913789 W

          Int Front End RAT with 0 internal checkpoints:
            Area = 0.025747 mm^2
            Peak Dynamic = 0.0769023 W
            Subthreshold Leakage = 0.000517404 W
            Gate Leakage = 5.24626e-05 W
            Runtime Dynamic = 0.0284331 W

          FP Front End RAT with 0 internal checkpoints:
            Area = 0.0546296 mm^2
            Peak Dynamic = 0.182168 W
            Subthreshold Leakage = 0.00072753 W
            Gate Leakage = 5.33898e-05 W
            Runtime Dynamic = 0.00737003 W

          Free List:
            Area = 0.0653613 mm^2
            Peak Dynamic = 0.0420163 W
            Subthreshold Leakage = 0.00173675 W
            Gate Leakage = 0.0001089 W
            Runtime Dynamic = 0.0273068 W

          Int Retire RAT: 
            Area = 0.0322074 mm^2
            Peak Dynamic = 0.0374817 W
            Subthreshold Leakage = 0.00053943 W
            Gate Leakage = 5.41145e-05 W
            Runtime Dynamic = 0.00725051 W

          FP Retire RAT:
            Area = 0.0322074 mm^2
            Peak Dynamic = 0.0374817 W
            Subthreshold Leakage = 0.00053943 W
            Gate Leakage = 5.41145e-05 W
            Runtime Dynamic = 0.00157747 W

          FP Free List:
            Area = 0.134204 mm^2
            Peak Dynamic = 0.0538365 W
            Subthreshold Leakage = 0.00229689 W
            Gate Leakage = 0.00013679 W
            Runtime Dynamic = 0.00762665 W

      Load Store Unit:
        Area = 15.4835 mm^2
        Peak Dynamic = 7.57805 W
        Subthreshold Leakage = 1.49608 W
        Gate Leakage = 0.114613 W
        Runtime Dynamic = 0.89618 W

          Data Cache:
            Area = 12.7324 mm^2
            Peak Dynamic = 6.77733 W
            Subthreshold Leakage = 1.34608 W
            Gate Leakage = 0.0959683 W
            Runtime Dynamic = 0.452505 W

          LoadQ:
            Area = 0.563883 mm^2
            Peak Dynamic = 0.287385 W
            Subthreshold Leakage = 0.0424807 W
            Gate Leakage = 0.00322446 W
            Runtime Dynamic = 0.0753339 W

          StoreQ:
            Area = 0.597754 mm^2
            Peak Dynamic = 0.304775 W
            Subthreshold Leakage = 0.0442184 W
            Gate Leakage = 0.00332956 W
            Runtime Dynamic = 0.159785 W

      Memory Management Unit:
        Area = 2.24661 mm^2
        Peak Dynamic = 1.38863 W
        Subthreshold Leakage = 0.243051 W
        Runtime Dynamic = 0.52139 W

          Itlb:
            Area = 0.544221 mm^2
            Peak Dynamic = 0.24727 W
            Subthreshold Leakage = 0.0754318 W
            Gate Leakage = 0.00460206 W
            Runtime Dynamic = 0 W

          Dtlb:
            Area = 1.50232 mm^2
            Peak Dynamic = 0.619974 W
            Subthreshold Leakage = 0.104318 W
            Gate Leakage = 0.00612156 W
            Runtime Dynamic = 0 W

      Execution Unit:
        Area = 34.3221 mm^2
        Peak Dynamic = 17.4244 W
        Subthreshold Leakage = 8.04333 W
        Runtime Dynamic = 3.92219 W

          Register Files:
            Area = 2.71919 mm^2
            Peak Dynamic = 3.04287 W
            Subthreshold Leakage = 0.0475276 W
            Gate Leakage = 0.00260308 W
            Runtime Dynamic = 0.402576 W

              Integer RF:
                Area = 1.3596 mm^2
                Peak Dynamic = 2.40981 W
                Subthreshold Leakage = 0.0237638 W
                Gate Leakage = 0.00130154 W
                Runtime Dynamic = 0.324866 W

              Floating Point RF:
                Area = 1.3596 mm^2
                Peak Dynamic = 0.633056 W
                Subthreshold Leakage = 0.0237638 W
                Gate Leakage = 0.00130154 W
                Runtime Dynamic = 0.0777103 W

          Instruction Scheduler:
            Area = 0.768454 mm^2
            Peak Dynamic = 1.81216 W
            Subthreshold Leakage = 0.0349934 W
            Gate Leakage = 0.00266221 W
            Runtime Dynamic = 0.62038 W

              Instruction Window:
                Area = 0.114037 mm^2
                Peak Dynamic = 0.336592 W
                Subthreshold Leakage = 0.00600169 W
                Gate Leakage = 0.000490361 W
                Runtime Dynamic = 0.178985 W

              FP Instruction Window:
                Area = 0.394075 mm^2
                Peak Dynamic = 0.910392 W
                Subthreshold Leakage = 0.0244208 W
                Gate Leakage = 0.00188223 W
                Runtime Dynamic = 0.0813035 W

              ROB:
                Area = 0.260342 mm^2
                Peak Dynamic = 0.565179 W
                Subthreshold Leakage = 0.00457096 W
                Gate Leakage = 0.000289616 W
                Runtime Dynamic = 0.360091 W

          Integer ALUs (Count: 6 ):
            Area = 0.672672 mm^2
            Peak Dynamic = 3.24719 W
            Subthreshold Leakage = 0.599188 W
            Gate Leakage = 0.0454759 W
            Runtime Dynamic = 0.695851 W

          Floating Point Units (FPUs) (Count: 6 ):
            Area = 29.1588 mm^2
            Peak Dynamic = 2.92247 W
            Subthreshold Leakage = 6.49334 W
            Gate Leakage = 0.492818 W
            Runtime Dynamic = 0.769132 W

          Complex ALUs (Mul/Div) (Count: 2 ):
            Area = 0.672672 mm^2
            Peak Dynamic = 0.693315 W
            Subthreshold Leakage = 0.599188 W
            Gate Leakage = 0.0454759 W
            Runtime Dynamic = 0.30249 W

          Results Broadcast Bus:
            Area Overhead = 0.130242 mm^2
            Peak Dynamic = 4.87218 W
            Subthreshold Leakage = 0.205787 W
            Gate Leakage = 0.0156184 W
            Runtime Dynamic = 0.29754 W

*****************************************************************************************
L2
      Area = 8.93442 mm^2
      Peak Dynamic = 4.25075 W
      Subthreshold Leakage = 0.614388 W
      Gate Leakage = 0.0308482 W
      Runtime Dynamic = 0.00430534 W

*****************************************************************************************
BUSES
      Area = 0.659793 mm^2
      Peak Dynamic = 5.30278 W
      Subthreshold Leakage = 0.0602716 W
      Gate Leakage = 0.00675678 W
      Runtime Dynamic = 0.210675 W

      Bus: 
        Area = 0.659793 mm^2
        Peak Dynamic = 5.30278 W
        Subthreshold Leakage = 0.0602716 W
        Gate Leakage = 0.00675678 W
        Runtime Dynamic = 0.210675 W

*****************************************************************************************
