McPAT (version 1.3 of Feb, 2015) is computing the target processor...
 

McPAT (version 1.3 of Feb, 2015) results  (current print level is 5)
*****************************************************************************************
  Technology 65 nm
  Using Long Channel Devices When Appropriate
  Interconnect metal projection= aggressive interconnect technology projection
  Core clock Rate(MHz) 2000

*****************************************************************************************
Processor: 
  Area = 77.6729 mm^2
  Peak Power = 48.0377 W
  Total Leakage = 16.4086 W
  Peak Dynamic = 31.6291 W
  Subthreshold Leakage = 15.2637 W
  Gate Leakage = 1.14486 W
  Runtime Dynamic = 5.40316 W

  Total Cores: 1 cores 
  Device Type= ITRS high performance device type
    Area = 69.9709 mm^2
    Peak Dynamic = 23.941 W
    Subthreshold Leakage = 14.7558 W
    Gate Leakage = 1.10943 W
    Runtime Dynamic = 5.21971 W

  Total L2s: 
  Device Type= ITRS high performance device type
    Area = 7.04507 mm^2
    Peak Dynamic = 3.28478 W
    Subthreshold Leakage = 0.447928 W
    Gate Leakage = 0.02871 W
    Runtime Dynamic = 0.00207337 W

  Total NoCs (Network/Bus): 
  Device Type= ITRS high performance device type
    Area = 0.656914 mm^2
    Peak Dynamic = 4.40337 W
    Subthreshold Leakage = 0.0600087 W
    Gate Leakage = 0.00672731 W
    Runtime Dynamic = 0.181381 W

*****************************************************************************************
Core:
      Area = 69.9709 mm^2
      Peak Dynamic = 23.941 W
      Subthreshold Leakage = 14.7558 W
      Gate Leakage = 1.10943 W
      Runtime Dynamic = 5.21971 W

      Instruction Fetch Unit:
        Area = 10.2748 mm^2
        Peak Dynamic = 3.69659 W
        Subthreshold Leakage = 1.1353 W
        Gate Leakage = 0.0747855 W
        Runtime Dynamic = 0.726973 W

          Instruction Cache:
            Area = 3.22286 mm^2
            Peak Dynamic = 1.49861 W
            Subthreshold Leakage = 0.353467 W
            Gate Leakage = 0.0257461 W
            Runtime Dynamic = 0.0723104 W

          Branch Target Buffer:
            Area = 2.7845 mm^2
            Peak Dynamic = 0.561397 W
            Subthreshold Leakage = 0.0786345 W
            Gate Leakage = 0.00322936 W
            Runtime Dynamic = 0.0201003 W

          Branch Predictor:
            Area = 0.262376 mm^2
            Peak Dynamic = 0.142843 W
            Subthreshold Leakage = 0.00429158 W
            Gate Leakage = 0.000362551 W
            Runtime Dynamic = 0.00180915 W

              Global Predictor:
                Area = 0.0322074 mm^2
                Peak Dynamic = 0.00917876 W
                Subthreshold Leakage = 0.00053943 W
                Gate Leakage = 5.41145e-05 W
                Runtime Dynamic = 0.000302992 W

              Local Predictor:
              L1_Local Predictor:
                Area = 0.0322074 mm^2
                Peak Dynamic = 0.00917876 W
                Subthreshold Leakage = 0.00053943 W
                Gate Leakage = 5.41145e-05 W
                Runtime Dynamic = 0.000302992 W

              L2_Local Predictor:
                Area = 0.0322074 mm^2
                Peak Dynamic = 0.00917876 W
                Subthreshold Leakage = 0.00053943 W
                Gate Leakage = 5.41145e-05 W
                Runtime Dynamic = 0.000302992 W

              Chooser:
                Area = 0.0322074 mm^2
                Peak Dynamic = 0.00917876 W
                Subthreshold Leakage = 0.00053943 W
                Gate Leakage = 5.41145e-05 W
                Runtime Dynamic = 0.000302992 W

              RAS:
                Area = 0.133546 mm^2
                Peak Dynamic = 0.106128 W
                Subthreshold Leakage = 0.00213386 W
                Gate Leakage = 0.000146093 W
                Runtime Dynamic = 0.000597183 W

          Instruction Buffer:
            Area = 0.00867221 mm^2
            Peak Dynamic = 0.0578666 W
            Subthreshold Leakage = 0.00114838 W
            Gate Leakage = 6.74413e-05 W
            Runtime Dynamic = 0.0422644 W

          Instruction Decoder:
            Area = 3.87654 mm^2
            Peak Dynamic = 1.3317 W
            Subthreshold Leakage = 0.659852 W
            Gate Leakage = 0.0381395 W
            Runtime Dynamic = 0.486322 W

      Renaming Unit:
        Area = 0.358587 mm^2
        Peak Dynamic = 1.44314 W
        Subthreshold Leakage = 0.0431605 W
        Gate Leakage = 0.00763661 W
        Runtime Dynamic = 0.604407 W

          Int Front End RAT with 0 internal checkpoints:
            Area = 0.0546296 mm^2
            Peak Dynamic = 0.593419 W
            Subthreshold Leakage = 0.00072753 W
            Gate Leakage = 5.33898e-05 W
            Runtime Dynamic = 0.125197 W

          FP Front End RAT with 0 internal checkpoints:
            Area = 0.025747 mm^2
            Peak Dynamic = 0.284881 W
            Subthreshold Leakage = 0.000517404 W
            Gate Leakage = 5.24626e-05 W
            Runtime Dynamic = 0.0239825 W

          Free List:
            Area = 0.0980021 mm^2
            Peak Dynamic = 0.0727634 W
            Subthreshold Leakage = 0.00208211 W
            Gate Leakage = 0.000129895 W
            Runtime Dynamic = 0.0289655 W

          Int Retire RAT: 
            Area = 0.0099603 mm^2
            Peak Dynamic = 0.0114953 W
            Subthreshold Leakage = 0.000371946 W
            Gate Leakage = 3.81607e-05 W
            Runtime Dynamic = 0.00452878 W

          FP Retire RAT:
            Area = 0.0099603 mm^2
            Peak Dynamic = 0.0114953 W
            Subthreshold Leakage = 0.000371946 W
            Gate Leakage = 3.81607e-05 W
            Runtime Dynamic = 0.00090421 W

          FP Free List:
            Area = 0.0404774 mm^2
            Peak Dynamic = 0.0524194 W
            Subthreshold Leakage = 0.00118094 W
            Gate Leakage = 8.40627e-05 W
            Runtime Dynamic = 0.00416232 W

      Load Store Unit:
        Area = 16.8451 mm^2
        Peak Dynamic = 6.46541 W
        Subthreshold Leakage = 1.61815 W
        Gate Leakage = 0.114304 W
        Runtime Dynamic = 0.798091 W

          Data Cache:
            Area = 13.9853 mm^2
            Peak Dynamic = 5.82591 W
            Subthreshold Leakage = 1.48837 W
            Gate Leakage = 0.100226 W
            Runtime Dynamic = 0.48158 W

          LoadQ:
            Area = 0.655618 mm^2
            Peak Dynamic = 0.295649 W
            Subthreshold Leakage = 0.0493864 W
            Gate Leakage = 0.00361371 W
            Runtime Dynamic = 0.0810032 W

          StoreQ:
            Area = 0.563883 mm^2
            Peak Dynamic = 0.239687 W
            Subthreshold Leakage = 0.0424807 W
            Gate Leakage = 0.00322446 W
            Runtime Dynamic = 0.131341 W

      Memory Management Unit:
        Area = 2.16636 mm^2
        Peak Dynamic = 0.983723 W
        Subthreshold Leakage = 0.217659 W
        Runtime Dynamic = 0.260417 W

          Itlb:
            Area = 0.544221 mm^2
            Peak Dynamic = 0.20623 W
            Subthreshold Leakage = 0.0754318 W
            Gate Leakage = 0.00460206 W
            Runtime Dynamic = 0 W

          Dtlb:
            Area = 1.50232 mm^2
            Peak Dynamic = 0.517076 W
            Subthreshold Leakage = 0.104318 W
            Gate Leakage = 0.00612156 W
            Runtime Dynamic = 0 W

      Execution Unit:
        Area = 31.8599 mm^2
        Peak Dynamic = 11.3521 W
        Subthreshold Leakage = 7.97088 W
        Runtime Dynamic = 2.82982 W

          Register Files:
            Area = 0.863237 mm^2
            Peak Dynamic = 0.70157 W
            Subthreshold Leakage = 0.0251501 W
            Gate Leakage = 0.001176 W
            Runtime Dynamic = 0.193593 W

              Integer RF:
                Area = 0.431618 mm^2
                Peak Dynamic = 0.548994 W
                Subthreshold Leakage = 0.0125751 W
                Gate Leakage = 0.000588002 W
                Runtime Dynamic = 0.155629 W

              Floating Point RF:
                Area = 0.431618 mm^2
                Peak Dynamic = 0.152576 W
                Subthreshold Leakage = 0.0125751 W
                Gate Leakage = 0.000588002 W
                Runtime Dynamic = 0.037965 W

          Instruction Scheduler:
            Area = 0.244744 mm^2
            Peak Dynamic = 0.477647 W
            Subthreshold Leakage = 0.0136172 W
            Gate Leakage = 0.0010057 W
            Runtime Dynamic = 0.354342 W

              Instruction Window:
                Area = 0.036727 mm^2
                Peak Dynamic = 0.0882069 W
                Subthreshold Leakage = 0.00235084 W
                Gate Leakage = 0.000202736 W
                Runtime Dynamic = 0.0932953 W

              FP Instruction Window:
                Area = 0.113601 mm^2
                Peak Dynamic = 0.222223 W
                Subthreshold Leakage = 0.00774006 W
                Gate Leakage = 0.000608351 W
                Runtime Dynamic = 0.0408034 W

              ROB:
                Area = 0.0944163 mm^2
                Peak Dynamic = 0.167217 W
                Subthreshold Leakage = 0.00352633 W
                Gate Leakage = 0.000194609 W
                Runtime Dynamic = 0.220243 W

          Integer ALUs (Count: 6 ):
            Area = 0.672672 mm^2
            Peak Dynamic = 2.72645 W
            Subthreshold Leakage = 0.599188 W
            Gate Leakage = 0.0454759 W
            Runtime Dynamic = 0.614724 W

          Floating Point Units (FPUs) (Count: 6 ):
            Area = 29.1588 mm^2
            Peak Dynamic = 2.45381 W
            Subthreshold Leakage = 6.49334 W
            Gate Leakage = 0.492818 W
            Runtime Dynamic = 0.70718 W

          Complex ALUs (Mul/Div) (Count: 2 ):
            Area = 0.672672 mm^2
            Peak Dynamic = 0.589168 W
            Subthreshold Leakage = 0.599188 W
            Gate Leakage = 0.0454759 W
            Runtime Dynamic = 0.291249 W

          Results Broadcast Bus:
            Area Overhead = 0.128001 mm^2
            Peak Dynamic = 3.9868 W
            Subthreshold Leakage = 0.202486 W
            Gate Leakage = 0.0153678 W
            Runtime Dynamic = 0.252067 W

*****************************************************************************************
L2
      Area = 7.04507 mm^2
      Peak Dynamic = 3.28478 W
      Subthreshold Leakage = 0.447928 W
      Gate Leakage = 0.02871 W
      Runtime Dynamic = 0.00207337 W

*****************************************************************************************
BUSES
      Area = 0.656914 mm^2
      Peak Dynamic = 4.40337 W
      Subthreshold Leakage = 0.0600087 W
      Gate Leakage = 0.00672731 W
      Runtime Dynamic = 0.181381 W

      Bus: 
        Area = 0.656914 mm^2
        Peak Dynamic = 4.40337 W
        Subthreshold Leakage = 0.0600087 W
        Gate Leakage = 0.00672731 W
        Runtime Dynamic = 0.181381 W

*****************************************************************************************
