McPAT (version 1.3 of Feb, 2015) is computing the target processor...
 

McPAT (version 1.3 of Feb, 2015) results  (current print level is 5)
*****************************************************************************************
  Technology 65 nm
  Using Long Channel Devices When Appropriate
  Interconnect metal projection= aggressive interconnect technology projection
  Core clock Rate(MHz) 3802

*****************************************************************************************
Processor: 
  Area = 129.384 mm^2
  Peak Power = 190.407 W
  Total Leakage = 17.1646 W
  Peak Dynamic = 173.243 W
  Subthreshold Leakage = 15.914 W
  Gate Leakage = 1.25062 W
  Runtime Dynamic = 21.2989 W

  Total Cores: 1 cores 
  Device Type= ITRS high performance device type
    Area = 120.752 mm^2
    Peak Dynamic = 157.515 W
    Subthreshold Leakage = 15.3981 W
    Gate Leakage = 1.21429 W
    Runtime Dynamic = 20.9453 W

  Total L2s: 
  Device Type= ITRS high performance device type
    Area = 7.04507 mm^2
    Peak Dynamic = 6.24436 W
    Subthreshold Leakage = 0.447928 W
    Gate Leakage = 0.02871 W
    Runtime Dynamic = 0.0105701 W

  Total NoCs (Network/Bus): 
  Device Type= ITRS high performance device type
    Area = 1.58715 mm^2
    Peak Dynamic = 9.48289 W
    Subthreshold Leakage = 0.0679809 W
    Gate Leakage = 0.00762104 W
    Runtime Dynamic = 0.343022 W

*****************************************************************************************
Core:
      Area = 120.752 mm^2
      Peak Dynamic = 157.515 W
      Subthreshold Leakage = 15.3981 W
      Gate Leakage = 1.21429 W
      Runtime Dynamic = 20.9453 W

      Instruction Fetch Unit:
        Area = 47.3535 mm^2
        Peak Dynamic = 23.8216 W
        Subthreshold Leakage = 1.37445 W
        Gate Leakage = 0.0996088 W
        Runtime Dynamic = 2.27298 W

          Instruction Cache:
            Area = 3.22286 mm^2
            Peak Dynamic = 2.84886 W
            Subthreshold Leakage = 0.353467 W
            Gate Leakage = 0.0257461 W
            Runtime Dynamic = 0.110933 W

          Branch Target Buffer:
            Area = 30.3399 mm^2
            Peak Dynamic = 7.08468 W
            Subthreshold Leakage = 0.209817 W
            Gate Leakage = 0.00973264 W
            Runtime Dynamic = 0.0781448 W

          Branch Predictor:
            Area = 1.6867 mm^2
            Peak Dynamic = 2.16567 W
            Subthreshold Leakage = 0.0176138 W
            Gate Leakage = 0.00123222 W
            Runtime Dynamic = 0.008393 W

              Global Predictor:
                Area = 0.167447 mm^2
                Peak Dynamic = 0.158038 W
                Subthreshold Leakage = 0.0013944 W
                Gate Leakage = 8.91613e-05 W
                Runtime Dynamic = 0.00146223 W

              Local Predictor:
              L1_Local Predictor:
                Area = 0.167447 mm^2
                Peak Dynamic = 0.158038 W
                Subthreshold Leakage = 0.0013944 W
                Gate Leakage = 8.91613e-05 W
                Runtime Dynamic = 0.00146223 W

              L2_Local Predictor:
                Area = 0.167447 mm^2
                Peak Dynamic = 0.158038 W
                Subthreshold Leakage = 0.0013944 W
                Gate Leakage = 8.91613e-05 W
                Runtime Dynamic = 0.00146223 W

              Chooser:
                Area = 0.167447 mm^2
                Peak Dynamic = 0.158038 W
                Subthreshold Leakage = 0.0013944 W
                Gate Leakage = 8.91613e-05 W
                Runtime Dynamic = 0.00146223 W

              RAS:
                Area = 1.01692 mm^2
                Peak Dynamic = 1.53351 W
                Subthreshold Leakage = 0.0120362 W
                Gate Leakage = 0.000875575 W
                Runtime Dynamic = 0.00254406 W

          Instruction Buffer:
            Area = 0.0693751 mm^2
            Peak Dynamic = 3.45816 W
            Subthreshold Leakage = 0.00553477 W
            Gate Leakage = 0.000278614 W
            Runtime Dynamic = 0.570596 W

          Instruction Decoder:
            Area = 11.6296 mm^2
            Peak Dynamic = 7.59469 W
            Subthreshold Leakage = 0.659852 W
            Gate Leakage = 0.0381395 W
            Runtime Dynamic = 0.835416 W

      Renaming Unit:
        Area = 1.92229 mm^2
        Peak Dynamic = 60.7344 W
        Subthreshold Leakage = 0.141166 W
        Gate Leakage = 0.0252764 W
        Runtime Dynamic = 5.23955 W

          Int Front End RAT with 0 internal checkpoints:
            Area = 0.390059 mm^2
            Peak Dynamic = 33.9897 W
            Subthreshold Leakage = 0.00248417 W
            Gate Leakage = 0.000162095 W
            Runtime Dynamic = 2.02729 W

          FP Front End RAT with 0 internal checkpoints:
            Area = 0.184722 mm^2
            Peak Dynamic = 22.5359 W
            Subthreshold Leakage = 0.00161077 W
            Gate Leakage = 0.000106646 W
            Runtime Dynamic = 0.417926 W

          Free List:
            Area = 0.568743 mm^2
            Peak Dynamic = 0.748942 W
            Subthreshold Leakage = 0.00448473 W
            Gate Leakage = 0.000245996 W
            Runtime Dynamic = 0.0909373 W

          Int Retire RAT: 
            Area = 0.0099603 mm^2
            Peak Dynamic = 0.0218525 W
            Subthreshold Leakage = 0.000371946 W
            Gate Leakage = 3.81607e-05 W
            Runtime Dynamic = 0.00737962 W

          FP Retire RAT:
            Area = 0.0783228 mm^2
            Peak Dynamic = 0.189577 W
            Subthreshold Leakage = 0.000800707 W
            Gate Leakage = 5.66636e-05 W
            Runtime Dynamic = 0.00367334 W

          FP Free List:
            Area = 0.285406 mm^2
            Peak Dynamic = 0.57041 W
            Subthreshold Leakage = 0.00324653 W
            Gate Leakage = 0.00018717 W
            Runtime Dynamic = 0.0143523 W

      Load Store Unit:
        Area = 14.7946 mm^2
        Peak Dynamic = 12.1518 W
        Subthreshold Leakage = 1.48653 W
        Gate Leakage = 0.124706 W
        Runtime Dynamic = 1.61521 W

          Data Cache:
            Area = 11.9681 mm^2
            Peak Dynamic = 10.5848 W
            Subthreshold Leakage = 1.27427 W
            Gate Leakage = 0.093823 W
            Runtime Dynamic = 0.607285 W

          LoadQ:
            Area = 0.549477 mm^2
            Peak Dynamic = 0.441783 W
            Subthreshold Leakage = 0.0416137 W
            Gate Leakage = 0.00317903 W
            Runtime Dynamic = 0.110497 W

          StoreQ:
            Area = 0.563883 mm^2
            Peak Dynamic = 0.455646 W
            Subthreshold Leakage = 0.0424807 W
            Gate Leakage = 0.00322446 W
            Runtime Dynamic = 0.227929 W

      Memory Management Unit:
        Area = 2.45162 mm^2
        Peak Dynamic = 3.04875 W
        Subthreshold Leakage = 0.307917 W
        Runtime Dynamic = 1.67375 W

          Itlb:
            Area = 0.544221 mm^2
            Peak Dynamic = 0.392043 W
            Subthreshold Leakage = 0.0754318 W
            Gate Leakage = 0.00460206 W
            Runtime Dynamic = 0 W

          Dtlb:
            Area = 1.50232 mm^2
            Peak Dynamic = 0.982962 W
            Subthreshold Leakage = 0.104318 W
            Gate Leakage = 0.00612156 W
            Runtime Dynamic = 0 W

      Execution Unit:
        Area = 45.7636 mm^2
        Peak Dynamic = 57.7589 W
        Subthreshold Leakage = 8.31733 W
        Runtime Dynamic = 10.1438 W

          Register Files:
            Area = 9.35294 mm^2
            Peak Dynamic = 16.377 W
            Subthreshold Leakage = 0.108279 W
            Gate Leakage = 0.00649419 W
            Runtime Dynamic = 1.04321 W

              Integer RF:
                Area = 4.67647 mm^2
                Peak Dynamic = 13.1614 W
                Subthreshold Leakage = 0.0541396 W
                Gate Leakage = 0.00324709 W
                Runtime Dynamic = 0.845006 W

              Floating Point RF:
                Area = 4.67647 mm^2
                Peak Dynamic = 3.2156 W
                Subthreshold Leakage = 0.0541396 W
                Gate Leakage = 0.00324709 W
                Runtime Dynamic = 0.198209 W

          Instruction Scheduler:
            Area = 5.35237 mm^2
            Peak Dynamic = 18.9985 W
            Subthreshold Leakage = 0.156477 W
            Gate Leakage = 0.0109132 W
            Runtime Dynamic = 3.62774 W

              Instruction Window:
                Area = 0.754389 mm^2
                Peak Dynamic = 4.84229 W
                Subthreshold Leakage = 0.025308 W
                Gate Leakage = 0.00198776 W
                Runtime Dynamic = 1.37092 W

              FP Instruction Window:
                Area = 2.16861 mm^2
                Peak Dynamic = 9.06588 W
                Subthreshold Leakage = 0.0974086 W
                Gate Leakage = 0.00729916 W
                Runtime Dynamic = 0.340174 W

              ROB:
                Area = 2.42938 mm^2
                Peak Dynamic = 5.09032 W
                Subthreshold Leakage = 0.0337599 W
                Gate Leakage = 0.00162634 W
                Runtime Dynamic = 1.91664 W

          Integer ALUs (Count: 6 ):
            Area = 0.672672 mm^2
            Peak Dynamic = 5.08415 W
            Subthreshold Leakage = 0.599188 W
            Gate Leakage = 0.0454759 W
            Runtime Dynamic = 0.982929 W

          Floating Point Units (FPUs) (Count: 6 ):
            Area = 29.1588 mm^2
            Peak Dynamic = 4.57573 W
            Subthreshold Leakage = 6.49334 W
            Gate Leakage = 0.492818 W
            Runtime Dynamic = 0.96528 W

          Complex ALUs (Mul/Div) (Count: 2 ):
            Area = 0.672672 mm^2
            Peak Dynamic = 1.06071 W
            Subthreshold Leakage = 0.599188 W
            Gate Leakage = 0.0454759 W
            Runtime Dynamic = 0.33935 W

          Results Broadcast Bus:
            Area Overhead = 0.149095 mm^2
            Peak Dynamic = 8.98482 W
            Subthreshold Leakage = 0.232692 W
            Gate Leakage = 0.0176604 W
            Runtime Dynamic = 0.507312 W

*****************************************************************************************
L2
      Area = 7.04507 mm^2
      Peak Dynamic = 6.24436 W
      Subthreshold Leakage = 0.447928 W
      Gate Leakage = 0.02871 W
      Runtime Dynamic = 0.0105701 W

*****************************************************************************************
BUSES
      Area = 1.58715 mm^2
      Peak Dynamic = 9.48289 W
      Subthreshold Leakage = 0.0679809 W
      Gate Leakage = 0.00762104 W
      Runtime Dynamic = 0.343022 W

      Bus: 
        Area = 1.58715 mm^2
        Peak Dynamic = 9.48289 W
        Subthreshold Leakage = 0.0679809 W
        Gate Leakage = 0.00762104 W
        Runtime Dynamic = 0.343022 W

*****************************************************************************************
