McPAT (version 1.3 of Feb, 2015) is computing the target processor...
 

McPAT (version 1.3 of Feb, 2015) results  (current print level is 5)
*****************************************************************************************
  Technology 65 nm
  Using Long Channel Devices When Appropriate
  Interconnect metal projection= aggressive interconnect technology projection
  Core clock Rate(MHz) 1798

*****************************************************************************************
Processor: 
  Area = 102.352 mm^2
  Peak Power = 66.0029 W
  Total Leakage = 18.0355 W
  Peak Dynamic = 47.9674 W
  Subthreshold Leakage = 16.7797 W
  Gate Leakage = 1.25572 W
  Runtime Dynamic = 9.73631 W

  Total Cores: 1 cores 
  Device Type= ITRS high performance device type
    Area = 83.7015 mm^2
    Peak Dynamic = 39.5099 W
    Subthreshold Leakage = 15.2923 W
    Gate Leakage = 1.20787 W
    Runtime Dynamic = 9.50202 W

  Total L2s: 
  Device Type= ITRS high performance device type
    Area = 17.8956 mm^2
    Peak Dynamic = 3.91081 W
    Subthreshold Leakage = 1.41855 W
    Gate Leakage = 0.0401246 W
    Runtime Dynamic = 0.0169655 W

  Total NoCs (Network/Bus): 
  Device Type= ITRS high performance device type
    Area = 0.754499 mm^2
    Peak Dynamic = 4.54669 W
    Subthreshold Leakage = 0.068923 W
    Gate Leakage = 0.00772665 W
    Runtime Dynamic = 0.217324 W

*****************************************************************************************
Core:
      Area = 83.7015 mm^2
      Peak Dynamic = 39.5099 W
      Subthreshold Leakage = 15.2923 W
      Gate Leakage = 1.20787 W
      Runtime Dynamic = 9.50202 W

      Instruction Fetch Unit:
        Area = 13.2355 mm^2
        Peak Dynamic = 5.64044 W
        Subthreshold Leakage = 1.30848 W
        Gate Leakage = 0.0951183 W
        Runtime Dynamic = 1.33834 W

          Instruction Cache:
            Area = 3.22286 mm^2
            Peak Dynamic = 1.34725 W
            Subthreshold Leakage = 0.353467 W
            Gate Leakage = 0.0257461 W
            Runtime Dynamic = 0.087251 W

          Branch Target Buffer:
            Area = 2.7845 mm^2
            Peak Dynamic = 0.504696 W
            Subthreshold Leakage = 0.0786345 W
            Gate Leakage = 0.00322936 W
            Runtime Dynamic = 0.0240359 W

          Branch Predictor:
            Area = 2.87604 mm^2
            Peak Dynamic = 0.638397 W
            Subthreshold Leakage = 0.0824653 W
            Gate Leakage = 0.00317596 W
            Runtime Dynamic = 0.0195985 W

              Global Predictor:
                Area = 1.33904 mm^2
                Peak Dynamic = 0.263242 W
                Subthreshold Leakage = 0.0396263 W
                Gate Leakage = 0.00146082 W
                Runtime Dynamic = 0.00912591 W

              Local Predictor:
              L1_Local Predictor:
                Area = 0.0322074 mm^2
                Peak Dynamic = 0.00825171 W
                Subthreshold Leakage = 0.00053943 W
                Gate Leakage = 5.41145e-05 W
                Runtime Dynamic = 0.000361853 W

              L2_Local Predictor:
                Area = 0.0322074 mm^2
                Peak Dynamic = 0.00825171 W
                Subthreshold Leakage = 0.00053943 W
                Gate Leakage = 5.41145e-05 W
                Runtime Dynamic = 0.000361853 W

              Chooser:
                Area = 1.33904 mm^2
                Peak Dynamic = 0.263242 W
                Subthreshold Leakage = 0.0396263 W
                Gate Leakage = 0.00146082 W
                Runtime Dynamic = 0.00912591 W

              RAS:
                Area = 0.133546 mm^2
                Peak Dynamic = 0.0954094 W
                Subthreshold Leakage = 0.00213386 W
                Gate Leakage = 0.000146093 W
                Runtime Dynamic = 0.000622978 W

          Instruction Buffer:
            Area = 0.0693751 mm^2
            Peak Dynamic = 1.63539 W
            Subthreshold Leakage = 0.00553477 W
            Gate Leakage = 0.000278614 W
            Runtime Dynamic = 0.361166 W

          Instruction Decoder:
            Area = 3.87654 mm^2
            Peak Dynamic = 1.1972 W
            Subthreshold Leakage = 0.659852 W
            Gate Leakage = 0.0381395 W
            Runtime Dynamic = 0.528788 W

      Renaming Unit:
        Area = 1.50701 mm^2
        Peak Dynamic = 3.32283 W
        Subthreshold Leakage = 0.139074 W
        Gate Leakage = 0.0251758 W
        Runtime Dynamic = 1.48908 W

          Int Front End RAT with 0 internal checkpoints:
            Area = 0.0546296 mm^2
            Peak Dynamic = 0.533483 W
            Subthreshold Leakage = 0.00072753 W
            Gate Leakage = 5.33898e-05 W
            Runtime Dynamic = 0.126222 W

          FP Front End RAT with 0 internal checkpoints:
            Area = 0.184722 mm^2
            Peak Dynamic = 1.13196 W
            Subthreshold Leakage = 0.00161077 W
            Gate Leakage = 0.000106646 W
            Runtime Dynamic = 0.0281855 W

          Free List:
            Area = 0.223998 mm^2
            Peak Dynamic = 0.0890043 W
            Subthreshold Leakage = 0.00271788 W
            Gate Leakage = 0.000149945 W
            Runtime Dynamic = 0.0400212 W

          Int Retire RAT: 
            Area = 0.0783228 mm^2
            Peak Dynamic = 0.0896527 W
            Subthreshold Leakage = 0.000800707 W
            Gate Leakage = 5.66636e-05 W
            Runtime Dynamic = 0.0110752 W

          FP Retire RAT:
            Area = 0.0783228 mm^2
            Peak Dynamic = 0.0896527 W
            Subthreshold Leakage = 0.000800707 W
            Gate Leakage = 5.66636e-05 W
            Runtime Dynamic = 0.00232195 W

          FP Free List:
            Area = 0.480797 mm^2
            Peak Dynamic = 0.119068 W
            Subthreshold Leakage = 0.00388838 W
            Gate Leakage = 0.000203822 W
            Runtime Dynamic = 0.0112378 W

      Load Store Unit:
        Area = 14.8489 mm^2
        Peak Dynamic = 5.76717 W
        Subthreshold Leakage = 1.4895 W
        Gate Leakage = 0.124926 W
        Runtime Dynamic = 0.926151 W

          Data Cache:
            Area = 11.9681 mm^2
            Peak Dynamic = 5.00567 W
            Subthreshold Leakage = 1.27427 W
            Gate Leakage = 0.093823 W
            Runtime Dynamic = 0.377108 W

          LoadQ:
            Area = 0.563883 mm^2
            Peak Dynamic = 0.215479 W
            Subthreshold Leakage = 0.0424807 W
            Gate Leakage = 0.00322446 W
            Runtime Dynamic = 0.0741867 W

          StoreQ:
            Area = 0.597754 mm^2
            Peak Dynamic = 0.228518 W
            Subthreshold Leakage = 0.0442184 W
            Gate Leakage = 0.00332956 W
            Runtime Dynamic = 0.157352 W

      Memory Management Unit:
        Area = 2.45276 mm^2
        Peak Dynamic = 1.44401 W
        Subthreshold Leakage = 0.308278 W
        Runtime Dynamic = 0.79376 W

          Itlb:
            Area = 0.544221 mm^2
            Peak Dynamic = 0.185401 W
            Subthreshold Leakage = 0.0754318 W
            Gate Leakage = 0.00460206 W
            Runtime Dynamic = 0 W

          Dtlb:
            Area = 1.50232 mm^2
            Peak Dynamic = 0.464851 W
            Subthreshold Leakage = 0.104318 W
            Gate Leakage = 0.00612156 W
            Runtime Dynamic = 0 W

      Execution Unit:
        Area = 43.1912 mm^2
        Peak Dynamic = 23.3354 W
        Subthreshold Leakage = 8.27628 W
        Runtime Dynamic = 4.95469 W

          Register Files:
            Area = 9.35294 mm^2
            Peak Dynamic = 7.74484 W
            Subthreshold Leakage = 0.108279 W
            Gate Leakage = 0.00649419 W
            Runtime Dynamic = 0.660783 W

              Integer RF:
                Area = 4.67647 mm^2
                Peak Dynamic = 6.22416 W
                Subthreshold Leakage = 0.0541396 W
                Gate Leakage = 0.00324709 W
                Runtime Dynamic = 0.536761 W

              Floating Point RF:
                Area = 4.67647 mm^2
                Peak Dynamic = 1.52069 W
                Subthreshold Leakage = 0.0541396 W
                Gate Leakage = 0.00324709 W
                Runtime Dynamic = 0.124022 W

          Instruction Scheduler:
            Area = 2.78116 mm^2
            Peak Dynamic = 4.92974 W
            Subthreshold Leakage = 0.118449 W
            Gate Leakage = 0.00898503 W
            Runtime Dynamic = 1.02792 W

              Instruction Window:
                Area = 0.396298 mm^2
                Peak Dynamic = 0.899153 W
                Subthreshold Leakage = 0.0188087 W
                Gate Leakage = 0.00148217 W
                Runtime Dynamic = 0.298898 W

              FP Instruction Window:
                Area = 1.46027 mm^2
                Peak Dynamic = 2.53574 W
                Subthreshold Leakage = 0.0873266 W
                Gate Leakage = 0.00666441 W
                Runtime Dynamic = 0.13797 W

              ROB:
                Area = 0.92459 mm^2
                Peak Dynamic = 1.49484 W
                Subthreshold Leakage = 0.0123138 W
                Gate Leakage = 0.000838445 W
                Runtime Dynamic = 0.591048 W

          Integer ALUs (Count: 6 ):
            Area = 0.672672 mm^2
            Peak Dynamic = 2.46216 W
            Subthreshold Leakage = 0.599188 W
            Gate Leakage = 0.0454759 W
            Runtime Dynamic = 0.662522 W

          Floating Point Units (FPUs) (Count: 6 ):
            Area = 29.1588 mm^2
            Peak Dynamic = 2.21594 W
            Subthreshold Leakage = 6.49334 W
            Gate Leakage = 0.492818 W
            Runtime Dynamic = 0.727897 W

          Complex ALUs (Mul/Div) (Count: 2 ):
            Area = 0.672672 mm^2
            Peak Dynamic = 0.53631 W
            Subthreshold Leakage = 0.599188 W
            Gate Leakage = 0.0454759 W
            Runtime Dynamic = 0.294353 W

          Results Broadcast Bus:
            Area Overhead = 0.146765 mm^2
            Peak Dynamic = 4.17644 W
            Subthreshold Leakage = 0.229307 W
            Gate Leakage = 0.0174035 W
            Runtime Dynamic = 0.311202 W

*****************************************************************************************
L2
      Area = 17.8956 mm^2
      Peak Dynamic = 3.91081 W
      Subthreshold Leakage = 1.41855 W
      Gate Leakage = 0.0401246 W
      Runtime Dynamic = 0.0169655 W

*****************************************************************************************
BUSES
      Area = 0.754499 mm^2
      Peak Dynamic = 4.54669 W
      Subthreshold Leakage = 0.068923 W
      Gate Leakage = 0.00772665 W
      Runtime Dynamic = 0.217324 W

      Bus: 
        Area = 0.754499 mm^2
        Peak Dynamic = 4.54669 W
        Subthreshold Leakage = 0.068923 W
        Gate Leakage = 0.00772665 W
        Runtime Dynamic = 0.217324 W

*****************************************************************************************
