McPAT (version 1.3 of Feb, 2015) is computing the target processor...
 

McPAT (version 1.3 of Feb, 2015) results  (current print level is 5)
*****************************************************************************************
  Technology 65 nm
  Using Long Channel Devices When Appropriate
  Interconnect metal projection= aggressive interconnect technology projection
  Core clock Rate(MHz) 3003

*****************************************************************************************
Processor: 
  Area = 166.935 mm^2
  Peak Power = 130.994 W
  Total Leakage = 19.0859 W
  Peak Dynamic = 111.908 W
  Subthreshold Leakage = 17.8562 W
  Gate Leakage = 1.22967 W
  Runtime Dynamic = 12.1112 W

  Total Cores: 1 cores 
  Device Type= ITRS high performance device type
    Area = 130.885 mm^2
    Peak Dynamic = 96.2461 W
    Subthreshold Leakage = 15.4296 W
    Gate Leakage = 1.17124 W
    Runtime Dynamic = 11.7961 W

  Total L2s: 
  Device Type= ITRS high performance device type
    Area = 34.2451 mm^2
    Peak Dynamic = 7.14791 W
    Subthreshold Leakage = 2.3493 W
    Gate Leakage = 0.0497633 W
    Runtime Dynamic = 0.00603686 W

  Total NoCs (Network/Bus): 
  Device Type= ITRS high performance device type
    Area = 1.80415 mm^2
    Peak Dynamic = 8.51407 W
    Subthreshold Leakage = 0.0772752 W
    Gate Leakage = 0.00866298 W
    Runtime Dynamic = 0.308996 W

*****************************************************************************************
Core:
      Area = 130.885 mm^2
      Peak Dynamic = 96.2461 W
      Subthreshold Leakage = 15.4296 W
      Gate Leakage = 1.17124 W
      Runtime Dynamic = 11.7961 W

      Instruction Fetch Unit:
        Area = 67.9693 mm^2
        Peak Dynamic = 22.4046 W
        Subthreshold Leakage = 1.71841 W
        Gate Leakage = 0.104066 W
        Runtime Dynamic = 1.32423 W

          Instruction Cache:
            Area = 4.44346 mm^2
            Peak Dynamic = 2.3521 W
            Subthreshold Leakage = 0.574222 W
            Gate Leakage = 0.0335599 W
            Runtime Dynamic = 0.104502 W

          Branch Target Buffer:
            Area = 30.3399 mm^2
            Peak Dynamic = 5.59582 W
            Subthreshold Leakage = 0.209817 W
            Gate Leakage = 0.00973264 W
            Runtime Dynamic = 0.0555566 W

          Branch Predictor:
            Area = 21.2782 mm^2
            Peak Dynamic = 7.67328 W
            Subthreshold Leakage = 0.19144 W
            Gate Leakage = 0.00714285 W
            Runtime Dynamic = 0.0509431 W

              Global Predictor:
                Area = 9.9632 mm^2
                Peak Dynamic = 3.10619 W
                Subthreshold Leakage = 0.0883077 W
                Gate Leakage = 0.00304447 W
                Runtime Dynamic = 0.0233853 W

              Local Predictor:
              L1_Local Predictor:
                Area = 0.167447 mm^2
                Peak Dynamic = 0.124826 W
                Subthreshold Leakage = 0.0013944 W
                Gate Leakage = 8.91613e-05 W
                Runtime Dynamic = 0.00107816 W

              L2_Local Predictor:
                Area = 0.167447 mm^2
                Peak Dynamic = 0.124826 W
                Subthreshold Leakage = 0.0013944 W
                Gate Leakage = 8.91613e-05 W
                Runtime Dynamic = 0.00107816 W

              Chooser:
                Area = 9.9632 mm^2
                Peak Dynamic = 3.10619 W
                Subthreshold Leakage = 0.0883077 W
                Gate Leakage = 0.00304447 W
                Runtime Dynamic = 0.0233853 W

              RAS:
                Area = 1.01692 mm^2
                Peak Dynamic = 1.21124 W
                Subthreshold Leakage = 0.0120362 W
                Gate Leakage = 0.000875575 W
                Runtime Dynamic = 0.00201607 W

          Instruction Buffer:
            Area = 0.0240454 mm^2
            Peak Dynamic = 0.453101 W
            Subthreshold Leakage = 0.00268701 W
            Gate Leakage = 0.000136196 W
            Runtime Dynamic = 0.144383 W

          Instruction Decoder:
            Area = 11.6296 mm^2
            Peak Dynamic = 5.99865 W
            Subthreshold Leakage = 0.659852 W
            Gate Leakage = 0.0381395 W
            Runtime Dynamic = 0.637165 W

      Renaming Unit:
        Area = 1.86722 mm^2
        Peak Dynamic = 38.3291 W
        Subthreshold Leakage = 0.0928187 W
        Gate Leakage = 0.016096 W
        Runtime Dynamic = 3.28793 W

          Int Front End RAT with 0 internal checkpoints:
            Area = 0.390059 mm^2
            Peak Dynamic = 26.8467 W
            Subthreshold Leakage = 0.00248417 W
            Gate Leakage = 0.000162095 W
            Runtime Dynamic = 1.52166 W

          FP Front End RAT with 0 internal checkpoints:
            Area = 0.0546296 mm^2
            Peak Dynamic = 8.8457 W
            Subthreshold Leakage = 0.00072753 W
            Gate Leakage = 5.33898e-05 W
            Runtime Dynamic = 0.332299 W

          Free List:
            Area = 0.83393 mm^2
            Peak Dynamic = 0.697366 W
            Subthreshold Leakage = 0.0051586 W
            Gate Leakage = 0.000265365 W
            Runtime Dynamic = 0.0812122 W

          Int Retire RAT: 
            Area = 0.0783228 mm^2
            Peak Dynamic = 0.149737 W
            Subthreshold Leakage = 0.000800707 W
            Gate Leakage = 5.66636e-05 W
            Runtime Dynamic = 0.0135042 W

          FP Retire RAT:
            Area = 0.0322074 mm^2
            Peak Dynamic = 0.0469381 W
            Subthreshold Leakage = 0.00053943 W
            Gate Leakage = 5.41145e-05 W
            Runtime Dynamic = 0.00182697 W

          FP Free List:
            Area = 0.223998 mm^2
            Peak Dynamic = 0.415996 W
            Subthreshold Leakage = 0.00271788 W
            Gate Leakage = 0.000149945 W
            Runtime Dynamic = 0.0106991 W

      Load Store Unit:
        Area = 15.5375 mm^2
        Peak Dynamic = 9.56045 W
        Subthreshold Leakage = 1.51317 W
        Gate Leakage = 0.117877 W
        Runtime Dynamic = 1.11242 W

          Data Cache:
            Area = 12.7324 mm^2
            Peak Dynamic = 8.48721 W
            Subthreshold Leakage = 1.34608 W
            Gate Leakage = 0.0959683 W
            Runtime Dynamic = 0.526566 W

          LoadQ:
            Area = 0.597754 mm^2
            Peak Dynamic = 0.381668 W
            Subthreshold Leakage = 0.0442184 W
            Gate Leakage = 0.00332956 W
            Runtime Dynamic = 0.0880747 W

          StoreQ:
            Area = 0.563883 mm^2
            Peak Dynamic = 0.359891 W
            Subthreshold Leakage = 0.0424807 W
            Gate Leakage = 0.00322446 W
            Runtime Dynamic = 0.166099 W

      Memory Management Unit:
        Area = 2.30062 mm^2
        Peak Dynamic = 1.91525 W
        Subthreshold Leakage = 0.26014 W
        Runtime Dynamic = 0.829201 W

          Itlb:
            Area = 0.544221 mm^2
            Peak Dynamic = 0.309654 W
            Subthreshold Leakage = 0.0754318 W
            Gate Leakage = 0.00460206 W
            Runtime Dynamic = 0 W

          Dtlb:
            Area = 1.50232 mm^2
            Peak Dynamic = 0.77639 W
            Subthreshold Leakage = 0.104318 W
            Gate Leakage = 0.00612156 W
            Runtime Dynamic = 0 W

      Execution Unit:
        Area = 34.7446 mm^2
        Peak Dynamic = 24.0366 W
        Subthreshold Leakage = 8.07444 W
        Runtime Dynamic = 5.24237 W

          Register Files:
            Area = 2.71919 mm^2
            Peak Dynamic = 3.81057 W
            Subthreshold Leakage = 0.0475276 W
            Gate Leakage = 0.00260308 W
            Runtime Dynamic = 0.453721 W

              Integer RF:
                Area = 1.3596 mm^2
                Peak Dynamic = 3.01779 W
                Subthreshold Leakage = 0.0237638 W
                Gate Leakage = 0.00130154 W
                Runtime Dynamic = 0.364793 W

              Floating Point RF:
                Area = 1.3596 mm^2
                Peak Dynamic = 0.792772 W
                Subthreshold Leakage = 0.0237638 W
                Gate Leakage = 0.00130154 W
                Runtime Dynamic = 0.088928 W

          Instruction Scheduler:
            Area = 1.13637 mm^2
            Peak Dynamic = 4.24277 W
            Subthreshold Leakage = 0.0482182 W
            Gate Leakage = 0.0035446 W
            Runtime Dynamic = 1.20407 W

              Instruction Window:
                Area = 0.223482 mm^2
                Peak Dynamic = 1.09439 W
                Subthreshold Leakage = 0.0102604 W
                Gate Leakage = 0.000826782 W
                Runtime Dynamic = 0.564367 W

              FP Instruction Window:
                Area = 0.602044 mm^2
                Peak Dynamic = 2.00977 W
                Subthreshold Leakage = 0.0313939 W
                Gate Leakage = 0.00233288 W
                Runtime Dynamic = 0.149769 W

              ROB:
                Area = 0.310849 mm^2
                Peak Dynamic = 1.13861 W
                Subthreshold Leakage = 0.00656394 W
                Gate Leakage = 0.000384931 W
                Runtime Dynamic = 0.489929 W

          Integer ALUs (Count: 6 ):
            Area = 0.672672 mm^2
            Peak Dynamic = 4.03876 W
            Subthreshold Leakage = 0.599188 W
            Gate Leakage = 0.0454759 W
            Runtime Dynamic = 0.768599 W

          Floating Point Units (FPUs) (Count: 6 ):
            Area = 29.1588 mm^2
            Peak Dynamic = 3.63488 W
            Subthreshold Leakage = 6.49334 W
            Gate Leakage = 0.492818 W
            Runtime Dynamic = 0.832571 W

          Complex ALUs (Mul/Div) (Count: 2 ):
            Area = 0.672672 mm^2
            Peak Dynamic = 0.851629 W
            Subthreshold Leakage = 0.599188 W
            Gate Leakage = 0.0454759 W
            Runtime Dynamic = 0.314454 W

          Results Broadcast Bus:
            Area Overhead = 0.130806 mm^2
            Peak Dynamic = 6.1313 W
            Subthreshold Leakage = 0.206588 W
            Gate Leakage = 0.0156792 W
            Runtime Dynamic = 0.342235 W

*****************************************************************************************
L2
      Area = 34.2451 mm^2
      Peak Dynamic = 7.14791 W
      Subthreshold Leakage = 2.3493 W
      Gate Leakage = 0.0497633 W
      Runtime Dynamic = 0.00603686 W

*****************************************************************************************
BUSES
      Area = 1.80415 mm^2
      Peak Dynamic = 8.51407 W
      Subthreshold Leakage = 0.0772752 W
      Gate Leakage = 0.00866298 W
      Runtime Dynamic = 0.308996 W

      Bus: 
        Area = 1.80415 mm^2
        Peak Dynamic = 8.51407 W
        Subthreshold Leakage = 0.0772752 W
        Gate Leakage = 0.00866298 W
        Runtime Dynamic = 0.308996 W

*****************************************************************************************
