McPAT (version 1.3 of Feb, 2015) is computing the target processor...
 

McPAT (version 1.3 of Feb, 2015) results  (current print level is 5)
*****************************************************************************************
  Technology 65 nm
  Using Long Channel Devices When Appropriate
  Interconnect metal projection= aggressive interconnect technology projection
  Core clock Rate(MHz) 3802

*****************************************************************************************
Processor: 
  Area = 128.465 mm^2
  Peak Power = 141.771 W
  Total Leakage = 19.0873 W
  Peak Dynamic = 122.683 W
  Subthreshold Leakage = 17.8152 W
  Gate Leakage = 1.27205 W
  Runtime Dynamic = 19.7746 W

  Total Cores: 1 cores 
  Device Type= ITRS high performance device type
    Area = 92.6385 mm^2
    Peak Dynamic = 104.185 W
    Subthreshold Leakage = 15.3982 W
    Gate Leakage = 1.21469 W
    Runtime Dynamic = 19.341 W

  Total L2s: 
  Device Type= ITRS high performance device type
    Area = 34.2451 mm^2
    Peak Dynamic = 9.04973 W
    Subthreshold Leakage = 2.3493 W
    Gate Leakage = 0.0497633 W
    Runtime Dynamic = 0.0336055 W

  Total NoCs (Network/Bus): 
  Device Type= ITRS high performance device type
    Area = 1.58147 mm^2
    Peak Dynamic = 9.44894 W
    Subthreshold Leakage = 0.0677375 W
    Gate Leakage = 0.00759375 W
    Runtime Dynamic = 0.399938 W

*****************************************************************************************
Core:
      Area = 92.6385 mm^2
      Peak Dynamic = 104.185 W
      Subthreshold Leakage = 15.3982 W
      Gate Leakage = 1.21469 W
      Runtime Dynamic = 19.341 W

      Instruction Fetch Unit:
        Area = 21.608 mm^2
        Peak Dynamic = 16.599 W
        Subthreshold Leakage = 1.39151 W
        Gate Leakage = 0.0991797 W
        Runtime Dynamic = 2.58005 W

          Instruction Cache:
            Area = 3.76459 mm^2
            Peak Dynamic = 2.91368 W
            Subthreshold Leakage = 0.447624 W
            Gate Leakage = 0.0289891 W
            Runtime Dynamic = 0.169705 W

          Branch Target Buffer:
            Area = 8.82038 mm^2
            Peak Dynamic = 3.45677 W
            Subthreshold Leakage = 0.137821 W
            Gate Leakage = 0.00601162 W
            Runtime Dynamic = 0.0645249 W

          Branch Predictor:
            Area = 0.785259 mm^2
            Peak Dynamic = 1.02082 W
            Subthreshold Leakage = 0.00926587 W
            Gate Leakage = 0.000660513 W
            Runtime Dynamic = 0.00682316 W

              Global Predictor:
                Area = 0.0783228 mm^2
                Peak Dynamic = 0.0767468 W
                Subthreshold Leakage = 0.000800707 W
                Gate Leakage = 5.66636e-05 W
                Runtime Dynamic = 0.00118728 W

              Local Predictor:
              L1_Local Predictor:
                Area = 0.0783228 mm^2
                Peak Dynamic = 0.0767468 W
                Subthreshold Leakage = 0.000800707 W
                Gate Leakage = 5.66636e-05 W
                Runtime Dynamic = 0.00118728 W

              L2_Local Predictor:
                Area = 0.0783228 mm^2
                Peak Dynamic = 0.0767468 W
                Subthreshold Leakage = 0.000800707 W
                Gate Leakage = 5.66636e-05 W
                Runtime Dynamic = 0.00118728 W

              Chooser:
                Area = 0.0783228 mm^2
                Peak Dynamic = 0.0767468 W
                Subthreshold Leakage = 0.000800707 W
                Gate Leakage = 5.66636e-05 W
                Runtime Dynamic = 0.00118728 W

              RAS:
                Area = 0.471968 mm^2
                Peak Dynamic = 0.713836 W
                Subthreshold Leakage = 0.00606304 W
                Gate Leakage = 0.000433858 W
                Runtime Dynamic = 0.00207402 W

          Instruction Buffer:
            Area = 0.0693751 mm^2
            Peak Dynamic = 3.45816 W
            Subthreshold Leakage = 0.00553477 W
            Gate Leakage = 0.000278614 W
            Runtime Dynamic = 0.670639 W

          Instruction Decoder:
            Area = 7.75308 mm^2
            Peak Dynamic = 5.06313 W
            Subthreshold Leakage = 0.659852 W
            Gate Leakage = 0.0381395 W
            Runtime Dynamic = 0.98189 W

      Renaming Unit:
        Area = 1.90303 mm^2
        Peak Dynamic = 23.64 W
        Subthreshold Leakage = 0.144016 W
        Gate Leakage = 0.0258346 W
        Runtime Dynamic = 4.13803 W

          Int Front End RAT with 0 internal checkpoints:
            Area = 0.184722 mm^2
            Peak Dynamic = 9.77913 W
            Subthreshold Leakage = 0.00161077 W
            Gate Leakage = 0.000106646 W
            Runtime Dynamic = 1.03506 W

          FP Front End RAT with 0 internal checkpoints:
            Area = 0.184722 mm^2
            Peak Dynamic = 9.77913 W
            Subthreshold Leakage = 0.00161077 W
            Gate Leakage = 0.000106646 W
            Runtime Dynamic = 0.211159 W

          Free List:
            Area = 0.480797 mm^2
            Peak Dynamic = 0.478367 W
            Subthreshold Leakage = 0.00388838 W
            Gate Leakage = 0.000203822 W
            Runtime Dynamic = 0.10051 W

          Int Retire RAT: 
            Area = 0.0783228 mm^2
            Peak Dynamic = 0.189577 W
            Subthreshold Leakage = 0.000800707 W
            Gate Leakage = 5.66636e-05 W
            Runtime Dynamic = 0.020686 W

          FP Retire RAT:
            Area = 0.0783228 mm^2
            Peak Dynamic = 0.189577 W
            Subthreshold Leakage = 0.000800707 W
            Gate Leakage = 5.66636e-05 W
            Runtime Dynamic = 0.0042201 W

          FP Free List:
            Area = 0.480797 mm^2
            Peak Dynamic = 0.478367 W
            Subthreshold Leakage = 0.00388838 W
            Gate Leakage = 0.000203822 W
            Runtime Dynamic = 0.0205049 W

      Load Store Unit:
        Area = 14.9589 mm^2
        Peak Dynamic = 12.3166 W
        Subthreshold Leakage = 1.49929 W
        Gate Leakage = 0.125867 W
        Runtime Dynamic = 1.85361 W

          Data Cache:
            Area = 11.9681 mm^2
            Peak Dynamic = 10.5848 W
            Subthreshold Leakage = 1.27427 W
            Gate Leakage = 0.093823 W
            Runtime Dynamic = 0.699304 W

          LoadQ:
            Area = 0.655618 mm^2
            Peak Dynamic = 0.562029 W
            Subthreshold Leakage = 0.0493864 W
            Gate Leakage = 0.00361371 W
            Runtime Dynamic = 0.172026 W

          StoreQ:
            Area = 0.597754 mm^2
            Peak Dynamic = 0.483218 W
            Subthreshold Leakage = 0.0442184 W
            Gate Leakage = 0.00332956 W
            Runtime Dynamic = 0.295806 W

      Memory Management Unit:
        Area = 2.46189 mm^2
        Peak Dynamic = 3.09118 W
        Subthreshold Leakage = 0.311166 W
        Runtime Dynamic = 1.71618 W

          Itlb:
            Area = 0.544221 mm^2
            Peak Dynamic = 0.392043 W
            Subthreshold Leakage = 0.0754318 W
            Gate Leakage = 0.00460206 W
            Runtime Dynamic = 0 W

          Dtlb:
            Area = 1.50232 mm^2
            Peak Dynamic = 0.982962 W
            Subthreshold Leakage = 0.104318 W
            Gate Leakage = 0.00612156 W
            Runtime Dynamic = 0 W

      Execution Unit:
        Area = 43.2404 mm^2
        Peak Dynamic = 48.538 W
        Subthreshold Leakage = 8.28156 W
        Runtime Dynamic = 9.05318 W

          Register Files:
            Area = 9.35294 mm^2
            Peak Dynamic = 16.377 W
            Subthreshold Leakage = 0.108279 W
            Gate Leakage = 0.00649419 W
            Runtime Dynamic = 1.23199 W

              Integer RF:
                Area = 4.67647 mm^2
                Peak Dynamic = 13.1614 W
                Subthreshold Leakage = 0.0541396 W
                Gate Leakage = 0.00324709 W
                Runtime Dynamic = 1.00034 W

              Floating Point RF:
                Area = 4.67647 mm^2
                Peak Dynamic = 3.2156 W
                Subthreshold Leakage = 0.0541396 W
                Gate Leakage = 0.00324709 W
                Runtime Dynamic = 0.231645 W

          Instruction Scheduler:
            Area = 2.82019 mm^2
            Peak Dynamic = 9.78347 W
            Subthreshold Leakage = 0.119435 W
            Gate Leakage = 0.00893496 W
            Runtime Dynamic = 1.91885 W

              Instruction Window:
                Area = 0.396298 mm^2
                Peak Dynamic = 1.53958 W
                Subthreshold Leakage = 0.018472 W
                Gate Leakage = 0.00143563 W
                Runtime Dynamic = 0.409729 W

              FP Instruction Window:
                Area = 1.30053 mm^2
                Peak Dynamic = 4.62685 W
                Subthreshold Leakage = 0.0855738 W
                Gate Leakage = 0.00653386 W
                Runtime Dynamic = 0.226773 W

              ROB:
                Area = 1.12336 mm^2
                Peak Dynamic = 3.61705 W
                Subthreshold Leakage = 0.015389 W
                Gate Leakage = 0.000965471 W
                Runtime Dynamic = 1.28235 W

          Integer ALUs (Count: 6 ):
            Area = 0.672672 mm^2
            Peak Dynamic = 5.08415 W
            Subthreshold Leakage = 0.599188 W
            Gate Leakage = 0.0454759 W
            Runtime Dynamic = 1.13666 W

          Floating Point Units (FPUs) (Count: 6 ):
            Area = 29.1588 mm^2
            Peak Dynamic = 4.57573 W
            Subthreshold Leakage = 6.49334 W
            Gate Leakage = 0.492818 W
            Runtime Dynamic = 1.07101 W

          Complex ALUs (Mul/Div) (Count: 2 ):
            Area = 0.672672 mm^2
            Peak Dynamic = 1.06071 W
            Subthreshold Leakage = 0.599188 W
            Gate Leakage = 0.0454759 W
            Runtime Dynamic = 0.359757 W

          Results Broadcast Bus:
            Area Overhead = 0.147862 mm^2
            Peak Dynamic = 8.91099 W
            Subthreshold Leakage = 0.230706 W
            Gate Leakage = 0.0175096 W
            Runtime Dynamic = 0.58902 W

*****************************************************************************************
L2
      Area = 34.2451 mm^2
      Peak Dynamic = 9.04973 W
      Subthreshold Leakage = 2.3493 W
      Gate Leakage = 0.0497633 W
      Runtime Dynamic = 0.0336055 W

*****************************************************************************************
BUSES
      Area = 1.58147 mm^2
      Peak Dynamic = 9.44894 W
      Subthreshold Leakage = 0.0677375 W
      Gate Leakage = 0.00759375 W
      Runtime Dynamic = 0.399938 W

      Bus: 
        Area = 1.58147 mm^2
        Peak Dynamic = 9.44894 W
        Subthreshold Leakage = 0.0677375 W
        Gate Leakage = 0.00759375 W
        Runtime Dynamic = 0.399938 W

*****************************************************************************************
