McPAT (version 1.3 of Feb, 2015) is computing the target processor...
 

McPAT (version 1.3 of Feb, 2015) results  (current print level is 5)
*****************************************************************************************
  Technology 65 nm
  Using Long Channel Devices When Appropriate
  Interconnect metal projection= aggressive interconnect technology projection
  Core clock Rate(MHz) 1000

*****************************************************************************************
Processor: 
  Area = 102.998 mm^2
  Peak Power = 35.0853 W
  Total Leakage = 18.1534 W
  Peak Dynamic = 16.9319 W
  Subthreshold Leakage = 16.9929 W
  Gate Leakage = 1.16056 W
  Runtime Dynamic = 3.00845 W

  Total Cores: 1 cores 
  Device Type= ITRS high performance device type
    Area = 67.9964 mm^2
    Peak Dynamic = 12.0149 W
    Subthreshold Leakage = 14.5744 W
    Gate Leakage = 1.10305 W
    Runtime Dynamic = 2.89541 W

  Total L2s: 
  Device Type= ITRS high performance device type
    Area = 34.2451 mm^2
    Peak Dynamic = 2.38026 W
    Subthreshold Leakage = 2.3493 W
    Gate Leakage = 0.0497633 W
    Runtime Dynamic = 0.00882942 W

  Total NoCs (Network/Bus): 
  Device Type= ITRS high performance device type
    Area = 0.756888 mm^2
    Peak Dynamic = 2.53676 W
    Subthreshold Leakage = 0.0691412 W
    Gate Leakage = 0.00775112 W
    Runtime Dynamic = 0.104209 W

*****************************************************************************************
Core:
      Area = 67.9964 mm^2
      Peak Dynamic = 12.0149 W
      Subthreshold Leakage = 14.5744 W
      Gate Leakage = 1.10305 W
      Runtime Dynamic = 2.89541 W

      Instruction Fetch Unit:
        Area = 10.4343 mm^2
        Peak Dynamic = 1.85115 W
        Subthreshold Leakage = 1.16566 W
        Gate Leakage = 0.0755995 W
        Runtime Dynamic = 0.349029 W

          Instruction Cache:
            Area = 3.387 mm^2
            Peak Dynamic = 0.754144 W
            Subthreshold Leakage = 0.385273 W
            Gate Leakage = 0.026836 W
            Runtime Dynamic = 0.0298833 W

          Branch Target Buffer:
            Area = 2.7845 mm^2
            Peak Dynamic = 0.280698 W
            Subthreshold Leakage = 0.0786345 W
            Gate Leakage = 0.00322936 W
            Runtime Dynamic = 0.00888889 W

          Branch Predictor:
            Area = 0.262376 mm^2
            Peak Dynamic = 0.0714217 W
            Subthreshold Leakage = 0.00429158 W
            Gate Leakage = 0.000362551 W
            Runtime Dynamic = 0.000872635 W

              Global Predictor:
                Area = 0.0322074 mm^2
                Peak Dynamic = 0.00458938 W
                Subthreshold Leakage = 0.00053943 W
                Gate Leakage = 5.41145e-05 W
                Runtime Dynamic = 0.000143713 W

              Local Predictor:
              L1_Local Predictor:
                Area = 0.0322074 mm^2
                Peak Dynamic = 0.00458938 W
                Subthreshold Leakage = 0.00053943 W
                Gate Leakage = 5.41145e-05 W
                Runtime Dynamic = 0.000143713 W

              L2_Local Predictor:
                Area = 0.0322074 mm^2
                Peak Dynamic = 0.00458938 W
                Subthreshold Leakage = 0.00053943 W
                Gate Leakage = 5.41145e-05 W
                Runtime Dynamic = 0.000143713 W

              Chooser:
                Area = 0.0322074 mm^2
                Peak Dynamic = 0.00458938 W
                Subthreshold Leakage = 0.00053943 W
                Gate Leakage = 5.41145e-05 W
                Runtime Dynamic = 0.000143713 W

              RAS:
                Area = 0.133546 mm^2
                Peak Dynamic = 0.0530642 W
                Subthreshold Leakage = 0.00213386 W
                Gate Leakage = 0.000146093 W
                Runtime Dynamic = 0.000297782 W

          Instruction Buffer:
            Area = 0.00867221 mm^2
            Peak Dynamic = 0.0289333 W
            Subthreshold Leakage = 0.00114838 W
            Gate Leakage = 6.74413e-05 W
            Runtime Dynamic = 0.0207318 W

          Instruction Decoder:
            Area = 3.87654 mm^2
            Peak Dynamic = 0.66585 W
            Subthreshold Leakage = 0.659852 W
            Gate Leakage = 0.0381395 W
            Runtime Dynamic = 0.238553 W

      Renaming Unit:
        Area = 0.354023 mm^2
        Peak Dynamic = 0.713633 W
        Subthreshold Leakage = 0.0417164 W
        Gate Leakage = 0.00736078 W
        Runtime Dynamic = 0.286576 W

          Int Front End RAT with 0 internal checkpoints:
            Area = 0.0546296 mm^2
            Peak Dynamic = 0.296709 W
            Subthreshold Leakage = 0.00072753 W
            Gate Leakage = 5.33898e-05 W
            Runtime Dynamic = 0.0564445 W

          FP Front End RAT with 0 internal checkpoints:
            Area = 0.025747 mm^2
            Peak Dynamic = 0.142441 W
            Subthreshold Leakage = 0.000517404 W
            Gate Leakage = 5.24626e-05 W
            Runtime Dynamic = 0.0118209 W

          Free List:
            Area = 0.0980021 mm^2
            Peak Dynamic = 0.0363817 W
            Subthreshold Leakage = 0.00208211 W
            Gate Leakage = 0.000129895 W
            Runtime Dynamic = 0.0132685 W

          Int Retire RAT: 
            Area = 0.0099603 mm^2
            Peak Dynamic = 0.00574763 W
            Subthreshold Leakage = 0.000371946 W
            Gate Leakage = 3.81607e-05 W
            Runtime Dynamic = 0.00210166 W

          FP Retire RAT:
            Area = 0.0099603 mm^2
            Peak Dynamic = 0.00574763 W
            Subthreshold Leakage = 0.000371946 W
            Gate Leakage = 3.81607e-05 W
            Runtime Dynamic = 0.00045887 W

          FP Free List:
            Area = 0.0404774 mm^2
            Peak Dynamic = 0.0262097 W
            Subthreshold Leakage = 0.00118094 W
            Gate Leakage = 8.40627e-05 W
            Runtime Dynamic = 0.00208485 W

      Load Store Unit:
        Area = 14.6216 mm^2
        Peak Dynamic = 3.10179 W
        Subthreshold Leakage = 1.4026 W
        Gate Leakage = 0.107626 W
        Runtime Dynamic = 0.337913 W

          Data Cache:
            Area = 11.9681 mm^2
            Peak Dynamic = 2.78402 W
            Subthreshold Leakage = 1.27427 W
            Gate Leakage = 0.093823 W
            Runtime Dynamic = 0.179604 W

          LoadQ:
            Area = 0.563883 mm^2
            Peak Dynamic = 0.119844 W
            Subthreshold Leakage = 0.0424807 W
            Gate Leakage = 0.00322446 W
            Runtime Dynamic = 0.0312117 W

          StoreQ:
            Area = 0.655618 mm^2
            Peak Dynamic = 0.147825 W
            Subthreshold Leakage = 0.0493864 W
            Gate Leakage = 0.00361371 W
            Runtime Dynamic = 0.0769978 W

      Memory Management Unit:
        Area = 2.16179 mm^2
        Peak Dynamic = 0.486901 W
        Subthreshold Leakage = 0.216214 W
        Runtime Dynamic = 0.125248 W

          Itlb:
            Area = 0.544221 mm^2
            Peak Dynamic = 0.103115 W
            Subthreshold Leakage = 0.0754318 W
            Gate Leakage = 0.00460206 W
            Runtime Dynamic = 0 W

          Dtlb:
            Area = 1.50232 mm^2
            Peak Dynamic = 0.258538 W
            Subthreshold Leakage = 0.104318 W
            Gate Leakage = 0.00612156 W
            Runtime Dynamic = 0 W

      Execution Unit:
        Area = 31.9585 mm^2
        Peak Dynamic = 5.86144 W
        Subthreshold Leakage = 7.97756 W
        Runtime Dynamic = 1.79664 W

          Register Files:
            Area = 0.863237 mm^2
            Peak Dynamic = 0.350785 W
            Subthreshold Leakage = 0.0251501 W
            Gate Leakage = 0.001176 W
            Runtime Dynamic = 0.0942062 W

              Integer RF:
                Area = 0.431618 mm^2
                Peak Dynamic = 0.274497 W
                Subthreshold Leakage = 0.0125751 W
                Gate Leakage = 0.000588002 W
                Runtime Dynamic = 0.0752898 W

              Floating Point RF:
                Area = 0.431618 mm^2
                Peak Dynamic = 0.076288 W
                Subthreshold Leakage = 0.0125751 W
                Gate Leakage = 0.000588002 W
                Runtime Dynamic = 0.0189164 W

          Instruction Scheduler:
            Area = 0.347323 mm^2
            Peak Dynamic = 0.284971 W
            Subthreshold Leakage = 0.0209445 W
            Gate Leakage = 0.00125679 W
            Runtime Dynamic = 0.246572 W

              Instruction Window:
                Area = 0.036727 mm^2
                Peak Dynamic = 0.0381568 W
                Subthreshold Leakage = 0.00226667 W
                Gate Leakage = 0.0001911 W
                Runtime Dynamic = 0.0347751 W

              FP Instruction Window:
                Area = 0.0991527 mm^2
                Peak Dynamic = 0.0961312 W
                Subthreshold Leakage = 0.00711124 W
                Gate Leakage = 0.000553726 W
                Runtime Dynamic = 0.018019 W

              ROB:
                Area = 0.211444 mm^2
                Peak Dynamic = 0.150683 W
                Subthreshold Leakage = 0.0115665 W
                Gate Leakage = 0.000511965 W
                Runtime Dynamic = 0.193778 W

          Integer ALUs (Count: 6 ):
            Area = 0.672672 mm^2
            Peak Dynamic = 1.41807 W
            Subthreshold Leakage = 0.599188 W
            Gate Leakage = 0.0454759 W
            Runtime Dynamic = 0.356433 W

          Floating Point Units (FPUs) (Count: 6 ):
            Area = 29.1588 mm^2
            Peak Dynamic = 1.27627 W
            Subthreshold Leakage = 6.49334 W
            Gate Leakage = 0.492818 W
            Runtime Dynamic = 0.517407 W

          Complex ALUs (Mul/Div) (Count: 2 ):
            Area = 0.672672 mm^2
            Peak Dynamic = 0.327493 W
            Subthreshold Leakage = 0.599188 W
            Gate Leakage = 0.0454759 W
            Runtime Dynamic = 0.255222 W

          Results Broadcast Bus:
            Area Overhead = 0.128568 mm^2
            Peak Dynamic = 2.00346 W
            Subthreshold Leakage = 0.203285 W
            Gate Leakage = 0.0154285 W
            Runtime Dynamic = 0.126405 W

*****************************************************************************************
L2
      Area = 34.2451 mm^2
      Peak Dynamic = 2.38026 W
      Subthreshold Leakage = 2.3493 W
      Gate Leakage = 0.0497633 W
      Runtime Dynamic = 0.00882942 W

*****************************************************************************************
BUSES
      Area = 0.756888 mm^2
      Peak Dynamic = 2.53676 W
      Subthreshold Leakage = 0.0691412 W
      Gate Leakage = 0.00775112 W
      Runtime Dynamic = 0.104209 W

      Bus: 
        Area = 0.756888 mm^2
        Peak Dynamic = 2.53676 W
        Subthreshold Leakage = 0.0691412 W
        Gate Leakage = 0.00775112 W
        Runtime Dynamic = 0.104209 W

*****************************************************************************************
