McPAT (version 1.3 of Feb, 2015) is computing the target processor...
 

McPAT (version 1.3 of Feb, 2015) results  (current print level is 5)
*****************************************************************************************
  Technology 65 nm
  Using Long Channel Devices When Appropriate
  Interconnect metal projection= aggressive interconnect technology projection
  Core clock Rate(MHz) 2597

*****************************************************************************************
Processor: 
  Area = 96.7892 mm^2
  Peak Power = 87.5585 W
  Total Leakage = 17.5091 W
  Peak Dynamic = 70.0494 W
  Subthreshold Leakage = 16.2608 W
  Gate Leakage = 1.24826 W
  Runtime Dynamic = 14.7021 W

  Total Cores: 1 cores 
  Device Type= ITRS high performance device type
    Area = 82.602 mm^2
    Peak Dynamic = 58.7728 W
    Subthreshold Leakage = 15.3185 W
    Gate Leakage = 1.20687 W
    Runtime Dynamic = 14.3846 W

  Total L2s: 
  Device Type= ITRS high performance device type
    Area = 13.4536 mm^2
    Peak Dynamic = 4.89101 W
    Subthreshold Leakage = 0.875281 W
    Gate Leakage = 0.0338801 W
    Runtime Dynamic = 0.0144523 W

  Total NoCs (Network/Bus): 
  Device Type= ITRS high performance device type
    Area = 0.733634 mm^2
    Peak Dynamic = 6.38555 W
    Subthreshold Leakage = 0.067017 W
    Gate Leakage = 0.00751298 W
    Runtime Dynamic = 0.303068 W

*****************************************************************************************
Core:
      Area = 82.602 mm^2
      Peak Dynamic = 58.7728 W
      Subthreshold Leakage = 15.3185 W
      Gate Leakage = 1.20687 W
      Runtime Dynamic = 14.3846 W

      Instruction Fetch Unit:
        Area = 11.1545 mm^2
        Peak Dynamic = 7.44432 W
        Subthreshold Leakage = 1.32158 W
        Gate Leakage = 0.0949962 W
        Runtime Dynamic = 1.99656 W

          Instruction Cache:
            Area = 3.76459 mm^2
            Peak Dynamic = 1.99022 W
            Subthreshold Leakage = 0.447624 W
            Gate Leakage = 0.0289891 W
            Runtime Dynamic = 0.160506 W

          Branch Target Buffer:
            Area = 2.7845 mm^2
            Peak Dynamic = 0.728974 W
            Subthreshold Leakage = 0.0786345 W
            Gate Leakage = 0.00322936 W
            Runtime Dynamic = 0.041392 W

          Branch Predictor:
            Area = 0.262376 mm^2
            Peak Dynamic = 0.185482 W
            Subthreshold Leakage = 0.00429158 W
            Gate Leakage = 0.000362551 W
            Runtime Dynamic = 0.00321135 W

              Global Predictor:
                Area = 0.0322074 mm^2
                Peak Dynamic = 0.0119186 W
                Subthreshold Leakage = 0.00053943 W
                Gate Leakage = 5.41145e-05 W
                Runtime Dynamic = 0.000579468 W

              Local Predictor:
              L1_Local Predictor:
                Area = 0.0322074 mm^2
                Peak Dynamic = 0.0119186 W
                Subthreshold Leakage = 0.00053943 W
                Gate Leakage = 5.41145e-05 W
                Runtime Dynamic = 0.000579468 W

              L2_Local Predictor:
                Area = 0.0322074 mm^2
                Peak Dynamic = 0.0119186 W
                Subthreshold Leakage = 0.00053943 W
                Gate Leakage = 5.41145e-05 W
                Runtime Dynamic = 0.000579468 W

              Chooser:
                Area = 0.0322074 mm^2
                Peak Dynamic = 0.0119186 W
                Subthreshold Leakage = 0.00053943 W
                Gate Leakage = 5.41145e-05 W
                Runtime Dynamic = 0.000579468 W

              RAS:
                Area = 0.133546 mm^2
                Peak Dynamic = 0.137808 W
                Subthreshold Leakage = 0.00213386 W
                Gate Leakage = 0.000146093 W
                Runtime Dynamic = 0.00089348 W

          Instruction Buffer:
            Area = 0.0693751 mm^2
            Peak Dynamic = 2.36213 W
            Subthreshold Leakage = 0.00553477 W
            Gate Leakage = 0.000278614 W
            Runtime Dynamic = 0.545088 W

          Instruction Decoder:
            Area = 3.87654 mm^2
            Peak Dynamic = 1.72921 W
            Subthreshold Leakage = 0.659852 W
            Gate Leakage = 0.0381395 W
            Runtime Dynamic = 0.798069 W

      Renaming Unit:
        Area = 1.49788 mm^2
        Peak Dynamic = 4.75822 W
        Subthreshold Leakage = 0.136186 W
        Gate Leakage = 0.0246241 W
        Runtime Dynamic = 2.13682 W

          Int Front End RAT with 0 internal checkpoints:
            Area = 0.0546296 mm^2
            Peak Dynamic = 0.770554 W
            Subthreshold Leakage = 0.00072753 W
            Gate Leakage = 5.33898e-05 W
            Runtime Dynamic = 0.202062 W

          FP Front End RAT with 0 internal checkpoints:
            Area = 0.184722 mm^2
            Peak Dynamic = 1.63498 W
            Subthreshold Leakage = 0.00161077 W
            Gate Leakage = 0.000106646 W
            Runtime Dynamic = 0.0405385 W

          Free List:
            Area = 0.223998 mm^2
            Peak Dynamic = 0.128556 W
            Subthreshold Leakage = 0.00271788 W
            Gate Leakage = 0.000149945 W
            Runtime Dynamic = 0.0639316 W

          Int Retire RAT: 
            Area = 0.0783228 mm^2
            Peak Dynamic = 0.129493 W
            Subthreshold Leakage = 0.000800707 W
            Gate Leakage = 5.66636e-05 W
            Runtime Dynamic = 0.0176617 W

          FP Retire RAT:
            Area = 0.0783228 mm^2
            Peak Dynamic = 0.129493 W
            Subthreshold Leakage = 0.000800707 W
            Gate Leakage = 5.66636e-05 W
            Runtime Dynamic = 0.00332711 W

          FP Free List:
            Area = 0.480797 mm^2
            Peak Dynamic = 0.17198 W
            Subthreshold Leakage = 0.00388838 W
            Gate Leakage = 0.000203822 W
            Runtime Dynamic = 0.01613 W

      Load Store Unit:
        Area = 14.9407 mm^2
        Peak Dynamic = 8.39236 W
        Subthreshold Leakage = 1.49351 W
        Gate Leakage = 0.124763 W
        Runtime Dynamic = 1.42169 W

          Data Cache:
            Area = 11.9681 mm^2
            Peak Dynamic = 7.2301 W
            Subthreshold Leakage = 1.27427 W
            Gate Leakage = 0.093823 W
            Runtime Dynamic = 0.576747 W

          LoadQ:
            Area = 0.655618 mm^2
            Peak Dynamic = 0.3839 W
            Subthreshold Leakage = 0.0493864 W
            Gate Leakage = 0.00361371 W
            Runtime Dynamic = 0.145851 W

          StoreQ:
            Area = 0.597754 mm^2
            Peak Dynamic = 0.330067 W
            Subthreshold Leakage = 0.0442184 W
            Gate Leakage = 0.00332956 W
            Runtime Dynamic = 0.250798 W

      Memory Management Unit:
        Area = 2.44363 mm^2
        Peak Dynamic = 2.05994 W
        Subthreshold Leakage = 0.30539 W
        Runtime Dynamic = 1.12073 W

          Itlb:
            Area = 0.544221 mm^2
            Peak Dynamic = 0.26779 W
            Subthreshold Leakage = 0.0754318 W
            Gate Leakage = 0.00460206 W
            Runtime Dynamic = 0 W

          Dtlb:
            Area = 1.50232 mm^2
            Peak Dynamic = 0.671423 W
            Subthreshold Leakage = 0.104318 W
            Gate Leakage = 0.00612156 W
            Runtime Dynamic = 0 W

      Execution Unit:
        Area = 44.0991 mm^2
        Peak Dynamic = 36.118 W
        Subthreshold Leakage = 8.29118 W
        Runtime Dynamic = 7.70878 W

          Register Files:
            Area = 9.35294 mm^2
            Peak Dynamic = 11.1865 W
            Subthreshold Leakage = 0.108279 W
            Gate Leakage = 0.00649419 W
            Runtime Dynamic = 0.979855 W

              Integer RF:
                Area = 4.67647 mm^2
                Peak Dynamic = 8.99007 W
                Subthreshold Leakage = 0.0541396 W
                Gate Leakage = 0.00324709 W
                Runtime Dynamic = 0.801559 W

              Floating Point RF:
                Area = 4.67647 mm^2
                Peak Dynamic = 2.19645 W
                Subthreshold Leakage = 0.0541396 W
                Gate Leakage = 0.00324709 W
                Runtime Dynamic = 0.178296 W

          Instruction Scheduler:
            Area = 3.69628 mm^2
            Peak Dynamic = 9.60228 W
            Subthreshold Leakage = 0.133582 W
            Gate Leakage = 0.00972156 W
            Runtime Dynamic = 2.29678 W

              Instruction Window:
                Area = 0.497673 mm^2
                Peak Dynamic = 1.95922 W
                Subthreshold Leakage = 0.0211691 W
                Gate Leakage = 0.00164666 W
                Runtime Dynamic = 0.709371 W

              FP Instruction Window:
                Area = 1.67059 mm^2
                Peak Dynamic = 4.50171 W
                Subthreshold Leakage = 0.0909135 W
                Gate Leakage = 0.0068744 W
                Runtime Dynamic = 0.235956 W

              ROB:
                Area = 1.52801 mm^2
                Peak Dynamic = 3.14135 W
                Subthreshold Leakage = 0.021499 W
                Gate Leakage = 0.0012005 W
                Runtime Dynamic = 1.35146 W

          Integer ALUs (Count: 6 ):
            Area = 0.672672 mm^2
            Peak Dynamic = 3.50755 W
            Subthreshold Leakage = 0.599188 W
            Gate Leakage = 0.0454759 W
            Runtime Dynamic = 0.954386 W

          Floating Point Units (FPUs) (Count: 6 ):
            Area = 29.1588 mm^2
            Peak Dynamic = 3.1568 W
            Subthreshold Leakage = 6.49334 W
            Gate Leakage = 0.492818 W
            Runtime Dynamic = 0.903364 W

          Complex ALUs (Mul/Div) (Count: 2 ):
            Area = 0.672672 mm^2
            Peak Dynamic = 0.745389 W
            Subthreshold Leakage = 0.599188 W
            Gate Leakage = 0.0454759 W
            Runtime Dynamic = 0.326902 W

          Results Broadcast Bus:
            Area Overhead = 0.148734 mm^2
            Peak Dynamic = 6.1263 W
            Subthreshold Leakage = 0.231962 W
            Gate Leakage = 0.017605 W
            Runtime Dynamic = 0.454326 W

*****************************************************************************************
L2
      Area = 13.4536 mm^2
      Peak Dynamic = 4.89101 W
      Subthreshold Leakage = 0.875281 W
      Gate Leakage = 0.0338801 W
      Runtime Dynamic = 0.0144523 W

*****************************************************************************************
BUSES
      Area = 0.733634 mm^2
      Peak Dynamic = 6.38555 W
      Subthreshold Leakage = 0.067017 W
      Gate Leakage = 0.00751298 W
      Runtime Dynamic = 0.303068 W

      Bus: 
        Area = 0.733634 mm^2
        Peak Dynamic = 6.38555 W
        Subthreshold Leakage = 0.067017 W
        Gate Leakage = 0.00751298 W
        Runtime Dynamic = 0.303068 W

*****************************************************************************************
