McPAT (version 1.3 of Feb, 2015) is computing the target processor...
 

McPAT (version 1.3 of Feb, 2015) results  (current print level is 5)
*****************************************************************************************
  Technology 65 nm
  Using Long Channel Devices When Appropriate
  Interconnect metal projection= aggressive interconnect technology projection
  Core clock Rate(MHz) 2197

*****************************************************************************************
Processor: 
  Area = 169.976 mm^2
  Peak Power = 95.4289 W
  Total Leakage = 18.9293 W
  Peak Dynamic = 76.4997 W
  Subthreshold Leakage = 17.7216 W
  Gate Leakage = 1.20769 W
  Runtime Dynamic = 9.15101 W

  Total Cores: 1 cores 
  Device Type= ITRS high performance device type
    Area = 134.758 mm^2
    Peak Dynamic = 64.1048 W
    Subthreshold Leakage = 15.2834 W
    Gate Leakage = 1.14796 W
    Runtime Dynamic = 8.84914 W

  Total L2s: 
  Device Type= ITRS high performance device type
    Area = 34.2451 mm^2
    Peak Dynamic = 5.22942 W
    Subthreshold Leakage = 2.3493 W
    Gate Leakage = 0.0497633 W
    Runtime Dynamic = 0.0171915 W

  Total NoCs (Network/Bus): 
  Device Type= ITRS high performance device type
    Area = 0.973117 mm^2
    Peak Dynamic = 7.16543 W
    Subthreshold Leakage = 0.0888936 W
    Gate Leakage = 0.00996547 W
    Runtime Dynamic = 0.284684 W

*****************************************************************************************
Core:
      Area = 134.758 mm^2
      Peak Dynamic = 64.1048 W
      Subthreshold Leakage = 15.2834 W
      Gate Leakage = 1.14796 W
      Runtime Dynamic = 8.84914 W

      Instruction Fetch Unit:
        Area = 75.5 mm^2
        Peak Dynamic = 18.0497 W
        Subthreshold Leakage = 1.76592 W
        Gate Leakage = 0.102464 W
        Runtime Dynamic = 1.03111 W

          Instruction Cache:
            Area = 4.44346 mm^2
            Peak Dynamic = 1.7208 W
            Subthreshold Leakage = 0.574222 W
            Gate Leakage = 0.0335599 W
            Runtime Dynamic = 0.145534 W

          Branch Target Buffer:
            Area = 30.3399 mm^2
            Peak Dynamic = 4.09391 W
            Subthreshold Leakage = 0.209817 W
            Gate Leakage = 0.00973264 W
            Runtime Dynamic = 0.0642329 W

          Branch Predictor:
            Area = 28.8935 mm^2
            Peak Dynamic = 7.60621 W
            Subthreshold Leakage = 0.262391 W
            Gate Leakage = 0.00979394 W
            Runtime Dynamic = 0.0768591 W

              Global Predictor:
                Area = 9.9632 mm^2
                Peak Dynamic = 2.27249 W
                Subthreshold Leakage = 0.0883077 W
                Gate Leakage = 0.00304447 W
                Runtime Dynamic = 0.0249651 W

              Local Predictor:
              L1_Local Predictor:
                Area = 5.14254 mm^2
                Peak Dynamic = 1.37146 W
                Subthreshold Leakage = 0.0489657 W
                Gate Leakage = 0.00185406 W
                Runtime Dynamic = 0.0161481 W

              L2_Local Predictor:
                Area = 2.80763 mm^2
                Peak Dynamic = 0.803615 W
                Subthreshold Leakage = 0.0247742 W
                Gate Leakage = 0.000975352 W
                Runtime Dynamic = 0.00916609 W

              Chooser:
                Area = 9.9632 mm^2
                Peak Dynamic = 2.27249 W
                Subthreshold Leakage = 0.0883077 W
                Gate Leakage = 0.00304447 W
                Runtime Dynamic = 0.0249651 W

              RAS:
                Area = 1.01692 mm^2
                Peak Dynamic = 0.886147 W
                Subthreshold Leakage = 0.0120362 W
                Gate Leakage = 0.000875575 W
                Runtime Dynamic = 0.00161467 W

          Instruction Buffer:
            Area = 0.00867221 mm^2
            Peak Dynamic = 0.0635665 W
            Subthreshold Leakage = 0.00114838 W
            Gate Leakage = 6.74413e-05 W
            Runtime Dynamic = 0.0454108 W

          Instruction Decoder:
            Area = 11.6296 mm^2
            Peak Dynamic = 4.38862 W
            Subthreshold Leakage = 0.659852 W
            Gate Leakage = 0.0381395 W
            Runtime Dynamic = 0.522525 W

      Renaming Unit:
        Area = 1.6541 mm^2
        Peak Dynamic = 24.453 W
        Subthreshold Leakage = 0.0699767 W
        Gate Leakage = 0.0118681 W
        Runtime Dynamic = 2.79438 W

          Int Front End RAT with 0 internal checkpoints:
            Area = 0.390059 mm^2
            Peak Dynamic = 19.6411 W
            Subthreshold Leakage = 0.00248417 W
            Gate Leakage = 0.000162095 W
            Runtime Dynamic = 1.67312 W

          FP Front End RAT with 0 internal checkpoints:
            Area = 0.025747 mm^2
            Peak Dynamic = 3.22277 W
            Subthreshold Leakage = 0.000517404 W
            Gate Leakage = 5.24626e-05 W
            Runtime Dynamic = 0.304881 W

          Free List:
            Area = 0.83393 mm^2
            Peak Dynamic = 0.510194 W
            Subthreshold Leakage = 0.0051586 W
            Gate Leakage = 0.000265365 W
            Runtime Dynamic = 0.0870021 W

          Int Retire RAT: 
            Area = 0.0783228 mm^2
            Peak Dynamic = 0.109548 W
            Subthreshold Leakage = 0.000800707 W
            Gate Leakage = 5.66636e-05 W
            Runtime Dynamic = 0.0141916 W

          FP Retire RAT:
            Area = 0.0099603 mm^2
            Peak Dynamic = 0.0126275 W
            Subthreshold Leakage = 0.000371946 W
            Gate Leakage = 3.81607e-05 W
            Runtime Dynamic = 0.00109483 W

          FP Free List:
            Area = 0.131231 mm^2
            Peak Dynamic = 0.250653 W
            Subthreshold Leakage = 0.00215625 W
            Gate Leakage = 0.000122342 W
            Runtime Dynamic = 0.00790597 W

      Load Store Unit:
        Area = 14.7921 mm^2
        Peak Dynamic = 6.94258 W
        Subthreshold Leakage = 1.43153 W
        Gate Leakage = 0.112221 W
        Runtime Dynamic = 0.830458 W

          Data Cache:
            Area = 11.9681 mm^2
            Peak Dynamic = 6.11649 W
            Subthreshold Leakage = 1.27427 W
            Gate Leakage = 0.093823 W
            Runtime Dynamic = 0.386388 W

          LoadQ:
            Area = 0.655618 mm^2
            Peak Dynamic = 0.324771 W
            Subthreshold Leakage = 0.0493864 W
            Gate Leakage = 0.00361371 W
            Runtime Dynamic = 0.089175 W

          StoreQ:
            Area = 0.655618 mm^2
            Peak Dynamic = 0.324771 W
            Subthreshold Leakage = 0.0493864 W
            Gate Leakage = 0.00361371 W
            Runtime Dynamic = 0.17835 W

      Memory Management Unit:
        Area = 2.2314 mm^2
        Peak Dynamic = 1.23591 W
        Subthreshold Leakage = 0.238237 W
        Runtime Dynamic = 0.441362 W

          Itlb:
            Area = 0.544221 mm^2
            Peak Dynamic = 0.226544 W
            Subthreshold Leakage = 0.0754318 W
            Gate Leakage = 0.00460206 W
            Runtime Dynamic = 0 W

          Dtlb:
            Area = 1.50232 mm^2
            Peak Dynamic = 0.568008 W
            Subthreshold Leakage = 0.104318 W
            Gate Leakage = 0.00612156 W
            Runtime Dynamic = 0 W

      Execution Unit:
        Area = 32.1139 mm^2
        Peak Dynamic = 13.4236 W
        Subthreshold Leakage = 8.00709 W
        Runtime Dynamic = 3.75183 W

          Register Files:
            Area = 0.863237 mm^2
            Peak Dynamic = 0.770675 W
            Subthreshold Leakage = 0.0251501 W
            Gate Leakage = 0.001176 W
            Runtime Dynamic = 0.207271 W

              Integer RF:
                Area = 0.431618 mm^2
                Peak Dynamic = 0.60307 W
                Subthreshold Leakage = 0.0125751 W
                Gate Leakage = 0.000588002 W
                Runtime Dynamic = 0.166885 W

              Floating Point RF:
                Area = 0.431618 mm^2
                Peak Dynamic = 0.167605 W
                Subthreshold Leakage = 0.0125751 W
                Gate Leakage = 0.000588002 W
                Runtime Dynamic = 0.0403853 W

          Instruction Scheduler:
            Area = 0.432155 mm^2
            Peak Dynamic = 1.19223 W
            Subthreshold Leakage = 0.0271508 W
            Gate Leakage = 0.00169446 W
            Runtime Dynamic = 0.885148 W

              Instruction Window:
                Area = 0.060737 mm^2
                Peak Dynamic = 0.202454 W
                Subthreshold Leakage = 0.00441295 W
                Gate Leakage = 0.000357946 W
                Runtime Dynamic = 0.229469 W

              FP Instruction Window:
                Area = 0.159975 mm^2
                Peak Dynamic = 0.383497 W
                Subthreshold Leakage = 0.0111713 W
                Gate Leakage = 0.000824553 W
                Runtime Dynamic = 0.0706405 W

              ROB:
                Area = 0.211444 mm^2
                Peak Dynamic = 0.606279 W
                Subthreshold Leakage = 0.0115665 W
                Gate Leakage = 0.000511965 W
                Runtime Dynamic = 0.585038 W

          Integer ALUs (Count: 6 ):
            Area = 0.672672 mm^2
            Peak Dynamic = 2.9842 W
            Subthreshold Leakage = 0.599188 W
            Gate Leakage = 0.0454759 W
            Runtime Dynamic = 0.653089 W

          Floating Point Units (FPUs) (Count: 6 ):
            Area = 29.1588 mm^2
            Peak Dynamic = 2.68578 W
            Subthreshold Leakage = 6.49334 W
            Gate Leakage = 0.492818 W
            Runtime Dynamic = 0.732913 W

          Complex ALUs (Mul/Div) (Count: 2 ):
            Area = 0.672672 mm^2
            Peak Dynamic = 0.640719 W
            Subthreshold Leakage = 0.599188 W
            Gate Leakage = 0.0454759 W
            Runtime Dynamic = 0.295527 W

          Results Broadcast Bus:
            Area Overhead = 0.12958 mm^2
            Peak Dynamic = 4.44384 W
            Subthreshold Leakage = 0.204586 W
            Gate Leakage = 0.0155273 W
            Runtime Dynamic = 0.271708 W

*****************************************************************************************
L2
      Area = 34.2451 mm^2
      Peak Dynamic = 5.22942 W
      Subthreshold Leakage = 2.3493 W
      Gate Leakage = 0.0497633 W
      Runtime Dynamic = 0.0171915 W

*****************************************************************************************
BUSES
      Area = 0.973117 mm^2
      Peak Dynamic = 7.16543 W
      Subthreshold Leakage = 0.0888936 W
      Gate Leakage = 0.00996547 W
      Runtime Dynamic = 0.284684 W

      Bus: 
        Area = 0.973117 mm^2
        Peak Dynamic = 7.16543 W
        Subthreshold Leakage = 0.0888936 W
        Gate Leakage = 0.00996547 W
        Runtime Dynamic = 0.284684 W

*****************************************************************************************
