McPAT (version 1.3 of Feb, 2015) is computing the target processor...
 

McPAT (version 1.3 of Feb, 2015) results  (current print level is 5)
*****************************************************************************************
  Technology 65 nm
  Using Long Channel Devices When Appropriate
  Interconnect metal projection= aggressive interconnect technology projection
  Core clock Rate(MHz) 2000

*****************************************************************************************
Processor: 
  Area = 164.936 mm^2
  Peak Power = 93.8807 W
  Total Leakage = 19.0115 W
  Peak Dynamic = 74.8692 W
  Subthreshold Leakage = 17.7851 W
  Gate Leakage = 1.2264 W
  Runtime Dynamic = 9.79038 W

  Total Cores: 1 cores 
  Device Type= ITRS high performance device type
    Area = 129.732 mm^2
    Peak Dynamic = 63.6835 W
    Subthreshold Leakage = 15.3483 W
    Gate Leakage = 1.16682 W
    Runtime Dynamic = 9.47025 W

  Total L2s: 
  Device Type= ITRS high performance device type
    Area = 34.2451 mm^2
    Peak Dynamic = 4.76051 W
    Subthreshold Leakage = 2.3493 W
    Gate Leakage = 0.0497633 W
    Runtime Dynamic = 0.0184048 W

  Total NoCs (Network/Bus): 
  Device Type= ITRS high performance device type
    Area = 0.95854 mm^2
    Peak Dynamic = 6.42521 W
    Subthreshold Leakage = 0.087562 W
    Gate Leakage = 0.00981619 W
    Runtime Dynamic = 0.301723 W

*****************************************************************************************
Core:
      Area = 129.732 mm^2
      Peak Dynamic = 63.6835 W
      Subthreshold Leakage = 15.3483 W
      Gate Leakage = 1.16682 W
      Runtime Dynamic = 9.47025 W

      Instruction Fetch Unit:
        Area = 67.9609 mm^2
        Peak Dynamic = 14.9142 W
        Subthreshold Leakage = 1.71576 W
        Gate Leakage = 0.10356 W
        Runtime Dynamic = 1.11001 W

          Instruction Cache:
            Area = 4.44346 mm^2
            Peak Dynamic = 1.5665 W
            Subthreshold Leakage = 0.574222 W
            Gate Leakage = 0.0335599 W
            Runtime Dynamic = 0.0990147 W

          Branch Target Buffer:
            Area = 30.3399 mm^2
            Peak Dynamic = 3.72682 W
            Subthreshold Leakage = 0.209817 W
            Gate Leakage = 0.00973264 W
            Runtime Dynamic = 0.0520178 W

          Branch Predictor:
            Area = 21.2782 mm^2
            Peak Dynamic = 5.11041 W
            Subthreshold Leakage = 0.19144 W
            Gate Leakage = 0.00714285 W
            Runtime Dynamic = 0.0466603 W

              Global Predictor:
                Area = 9.9632 mm^2
                Peak Dynamic = 2.06873 W
                Subthreshold Leakage = 0.0883077 W
                Gate Leakage = 0.00304447 W
                Runtime Dynamic = 0.0214744 W

              Local Predictor:
              L1_Local Predictor:
                Area = 0.167447 mm^2
                Peak Dynamic = 0.0831343 W
                Subthreshold Leakage = 0.0013944 W
                Gate Leakage = 8.91613e-05 W
                Runtime Dynamic = 0.000987047 W

              L2_Local Predictor:
                Area = 0.167447 mm^2
                Peak Dynamic = 0.0831343 W
                Subthreshold Leakage = 0.0013944 W
                Gate Leakage = 8.91613e-05 W
                Runtime Dynamic = 0.000987047 W

              Chooser:
                Area = 9.9632 mm^2
                Peak Dynamic = 2.06873 W
                Subthreshold Leakage = 0.0883077 W
                Gate Leakage = 0.00304447 W
                Runtime Dynamic = 0.0214744 W

              RAS:
                Area = 1.01692 mm^2
                Peak Dynamic = 0.806688 W
                Subthreshold Leakage = 0.0120362 W
                Gate Leakage = 0.000875575 W
                Runtime Dynamic = 0.00173734 W

          Instruction Buffer:
            Area = 0.0240454 mm^2
            Peak Dynamic = 0.301766 W
            Subthreshold Leakage = 0.00268701 W
            Gate Leakage = 0.000136196 W
            Runtime Dynamic = 0.129076 W

          Instruction Decoder:
            Area = 11.6296 mm^2
            Peak Dynamic = 3.9951 W
            Subthreshold Leakage = 0.659852 W
            Gate Leakage = 0.0381395 W
            Runtime Dynamic = 0.569614 W

      Renaming Unit:
        Area = 1.54032 mm^2
        Peak Dynamic = 25.3337 W
        Subthreshold Leakage = 0.0890404 W
        Gate Leakage = 0.0155617 W
        Runtime Dynamic = 2.60067 W

          Int Front End RAT with 0 internal checkpoints:
            Area = 0.390059 mm^2
            Peak Dynamic = 17.8799 W
            Subthreshold Leakage = 0.00248417 W
            Gate Leakage = 0.000162095 W
            Runtime Dynamic = 1.37601 W

          FP Front End RAT with 0 internal checkpoints:
            Area = 0.0546296 mm^2
            Peak Dynamic = 5.89124 W
            Subthreshold Leakage = 0.00072753 W
            Gate Leakage = 5.33898e-05 W
            Runtime Dynamic = 0.288271 W

          Free List:
            Area = 0.651304 mm^2
            Peak Dynamic = 0.417478 W
            Subthreshold Leakage = 0.0047102 W
            Gate Leakage = 0.000252498 W
            Runtime Dynamic = 0.0654058 W

          Int Retire RAT: 
            Area = 0.0322074 mm^2
            Peak Dynamic = 0.0312608 W
            Subthreshold Leakage = 0.00053943 W
            Gate Leakage = 5.41145e-05 W
            Runtime Dynamic = 0.0073563 W

          FP Retire RAT:
            Area = 0.0322074 mm^2
            Peak Dynamic = 0.0312608 W
            Subthreshold Leakage = 0.00053943 W
            Gate Leakage = 5.41145e-05 W
            Runtime Dynamic = 0.00156022 W

          FP Free List:
            Area = 0.134204 mm^2
            Peak Dynamic = 0.228078 W
            Subthreshold Leakage = 0.00229689 W
            Gate Leakage = 0.00013679 W
            Runtime Dynamic = 0.00756827 W

      Load Store Unit:
        Area = 14.7362 mm^2
        Peak Dynamic = 6.30971 W
        Subthreshold Leakage = 1.44301 W
        Gate Leakage = 0.115464 W
        Runtime Dynamic = 0.882151 W

          Data Cache:
            Area = 11.9681 mm^2
            Peak Dynamic = 5.56804 W
            Subthreshold Leakage = 1.27427 W
            Gate Leakage = 0.093823 W
            Runtime Dynamic = 0.422517 W

          LoadQ:
            Area = 0.655618 mm^2
            Peak Dynamic = 0.295649 W
            Subthreshold Leakage = 0.0493864 W
            Gate Leakage = 0.00361371 W
            Runtime Dynamic = 0.0956455 W

          StoreQ:
            Area = 0.549477 mm^2
            Peak Dynamic = 0.232395 W
            Subthreshold Leakage = 0.0416137 W
            Gate Leakage = 0.00317903 W
            Runtime Dynamic = 0.150364 W

      Memory Management Unit:
        Area = 2.29225 mm^2
        Peak Dynamic = 1.25737 W
        Subthreshold Leakage = 0.257493 W
        Runtime Dynamic = 0.534061 W

          Itlb:
            Area = 0.544221 mm^2
            Peak Dynamic = 0.20623 W
            Subthreshold Leakage = 0.0754318 W
            Gate Leakage = 0.00460206 W
            Runtime Dynamic = 0 W

          Dtlb:
            Area = 1.50232 mm^2
            Peak Dynamic = 0.517076 W
            Subthreshold Leakage = 0.104318 W
            Gate Leakage = 0.00612156 W
            Runtime Dynamic = 0 W

      Execution Unit:
        Area = 34.7366 mm^2
        Peak Dynamic = 15.8685 W
        Subthreshold Leakage = 8.07229 W
        Runtime Dynamic = 4.34337 W

          Register Files:
            Area = 2.71919 mm^2
            Peak Dynamic = 2.53784 W
            Subthreshold Leakage = 0.0475276 W
            Gate Leakage = 0.00260308 W
            Runtime Dynamic = 0.403107 W

              Integer RF:
                Area = 1.3596 mm^2
                Peak Dynamic = 2.00985 W
                Subthreshold Leakage = 0.0237638 W
                Gate Leakage = 0.00130154 W
                Runtime Dynamic = 0.326195 W

              Floating Point RF:
                Area = 1.3596 mm^2
                Peak Dynamic = 0.527987 W
                Subthreshold Leakage = 0.0237638 W
                Gate Leakage = 0.00130154 W
                Runtime Dynamic = 0.0769117 W

          Instruction Scheduler:
            Area = 1.13637 mm^2
            Peak Dynamic = 2.60795 W
            Subthreshold Leakage = 0.0482182 W
            Gate Leakage = 0.0035446 W
            Runtime Dynamic = 1.02015 W

              Instruction Window:
                Area = 0.223482 mm^2
                Peak Dynamic = 0.728864 W
                Subthreshold Leakage = 0.0102604 W
                Gate Leakage = 0.000826782 W
                Runtime Dynamic = 0.479249 W

              FP Instruction Window:
                Area = 0.602044 mm^2
                Peak Dynamic = 1.33851 W
                Subthreshold Leakage = 0.0313939 W
                Gate Leakage = 0.00233288 W
                Runtime Dynamic = 0.131868 W

              ROB:
                Area = 0.310849 mm^2
                Peak Dynamic = 0.540574 W
                Subthreshold Leakage = 0.00656394 W
                Gate Leakage = 0.000384931 W
                Runtime Dynamic = 0.409034 W

          Integer ALUs (Count: 6 ):
            Area = 0.672672 mm^2
            Peak Dynamic = 2.72645 W
            Subthreshold Leakage = 0.599188 W
            Gate Leakage = 0.0454759 W
            Runtime Dynamic = 0.703682 W

          Floating Point Units (FPUs) (Count: 6 ):
            Area = 29.1588 mm^2
            Peak Dynamic = 2.45381 W
            Subthreshold Leakage = 6.49334 W
            Gate Leakage = 0.492818 W
            Runtime Dynamic = 0.764335 W

          Complex ALUs (Mul/Div) (Count: 2 ):
            Area = 0.672672 mm^2
            Peak Dynamic = 0.589168 W
            Subthreshold Leakage = 0.599188 W
            Gate Leakage = 0.0454759 W
            Runtime Dynamic = 0.301311 W

          Results Broadcast Bus:
            Area Overhead = 0.131203 mm^2
            Peak Dynamic = 4.09878 W
            Subthreshold Leakage = 0.207084 W
            Gate Leakage = 0.0157168 W
            Runtime Dynamic = 0.296284 W

*****************************************************************************************
L2
      Area = 34.2451 mm^2
      Peak Dynamic = 4.76051 W
      Subthreshold Leakage = 2.3493 W
      Gate Leakage = 0.0497633 W
      Runtime Dynamic = 0.0184048 W

*****************************************************************************************
BUSES
      Area = 0.95854 mm^2
      Peak Dynamic = 6.42521 W
      Subthreshold Leakage = 0.087562 W
      Gate Leakage = 0.00981619 W
      Runtime Dynamic = 0.301723 W

      Bus: 
        Area = 0.95854 mm^2
        Peak Dynamic = 6.42521 W
        Subthreshold Leakage = 0.087562 W
        Gate Leakage = 0.00981619 W
        Runtime Dynamic = 0.301723 W

*****************************************************************************************
