McPAT (version 1.3 of Feb, 2015) is computing the target processor...
 

McPAT (version 1.3 of Feb, 2015) results  (current print level is 5)
*****************************************************************************************
  Technology 65 nm
  Using Long Channel Devices When Appropriate
  Interconnect metal projection= aggressive interconnect technology projection
  Core clock Rate(MHz) 1200

*****************************************************************************************
Processor: 
  Area = 95.2589 mm^2
  Peak Power = 51.011 W
  Total Leakage = 17.3099 W
  Peak Dynamic = 33.7011 W
  Subthreshold Leakage = 16.0652 W
  Gate Leakage = 1.24473 W
  Runtime Dynamic = 7.85989 W

  Total Cores: 1 cores 
  Device Type= ITRS high performance device type
    Area = 85.5967 mm^2
    Peak Dynamic = 28.6469 W
    Subthreshold Leakage = 15.3843 W
    Gate Leakage = 1.20643 W
    Runtime Dynamic = 7.69169 W

  Total L2s: 
  Device Type= ITRS high performance device type
    Area = 8.93442 mm^2
    Peak Dynamic = 2.12715 W
    Subthreshold Leakage = 0.614388 W
    Gate Leakage = 0.0308482 W
    Runtime Dynamic = 0.00641779 W

  Total NoCs (Network/Bus): 
  Device Type= ITRS high performance device type
    Area = 0.727789 mm^2
    Peak Dynamic = 2.92707 W
    Subthreshold Leakage = 0.0664831 W
    Gate Leakage = 0.00745312 W
    Runtime Dynamic = 0.16178 W

*****************************************************************************************
Core:
      Area = 85.5967 mm^2
      Peak Dynamic = 28.6469 W
      Subthreshold Leakage = 15.3843 W
      Gate Leakage = 1.20643 W
      Runtime Dynamic = 7.69169 W

      Instruction Fetch Unit:
        Area = 13.7552 mm^2
        Peak Dynamic = 3.77343 W
        Subthreshold Leakage = 1.39566 W
        Gate Leakage = 0.0970281 W
        Runtime Dynamic = 1.00682 W

          Instruction Cache:
            Area = 3.76459 mm^2
            Peak Dynamic = 0.919625 W
            Subthreshold Leakage = 0.447624 W
            Gate Leakage = 0.0289891 W
            Runtime Dynamic = 0.0729704 W

          Branch Target Buffer:
            Area = 2.7845 mm^2
            Peak Dynamic = 0.336838 W
            Subthreshold Leakage = 0.0786345 W
            Gate Leakage = 0.00322936 W
            Runtime Dynamic = 0.0177181 W

          Branch Predictor:
            Area = 2.87604 mm^2
            Peak Dynamic = 0.426071 W
            Subthreshold Leakage = 0.0824653 W
            Gate Leakage = 0.00317596 W
            Runtime Dynamic = 0.0146126 W

              Global Predictor:
                Area = 1.33904 mm^2
                Peak Dynamic = 0.17569 W
                Subthreshold Leakage = 0.0396263 W
                Gate Leakage = 0.00146082 W
                Runtime Dynamic = 0.00679525 W

              Local Predictor:
              L1_Local Predictor:
                Area = 0.0322074 mm^2
                Peak Dynamic = 0.00550726 W
                Subthreshold Leakage = 0.00053943 W
                Gate Leakage = 5.41145e-05 W
                Runtime Dynamic = 0.000270643 W

              L2_Local Predictor:
                Area = 0.0322074 mm^2
                Peak Dynamic = 0.00550726 W
                Subthreshold Leakage = 0.00053943 W
                Gate Leakage = 5.41145e-05 W
                Runtime Dynamic = 0.000270643 W

              Chooser:
                Area = 1.33904 mm^2
                Peak Dynamic = 0.17569 W
                Subthreshold Leakage = 0.0396263 W
                Gate Leakage = 0.00146082 W
                Runtime Dynamic = 0.00679525 W

              RAS:
                Area = 0.133546 mm^2
                Peak Dynamic = 0.063677 W
                Subthreshold Leakage = 0.00213386 W
                Gate Leakage = 0.000146093 W
                Runtime Dynamic = 0.000480778 W

          Instruction Buffer:
            Area = 0.0693751 mm^2
            Peak Dynamic = 1.09148 W
            Subthreshold Leakage = 0.00553477 W
            Gate Leakage = 0.000278614 W
            Runtime Dynamic = 0.284534 W

          Instruction Decoder:
            Area = 3.87654 mm^2
            Peak Dynamic = 0.799021 W
            Subthreshold Leakage = 0.659852 W
            Gate Leakage = 0.0381395 W
            Runtime Dynamic = 0.41659 W

      Renaming Unit:
        Area = 1.21301 mm^2
        Peak Dynamic = 2.11001 W
        Subthreshold Leakage = 0.130985 W
        Gate Leakage = 0.0238159 W
        Runtime Dynamic = 0.968225 W

          Int Front End RAT with 0 internal checkpoints:
            Area = 0.0546296 mm^2
            Peak Dynamic = 0.356051 W
            Subthreshold Leakage = 0.00072753 W
            Gate Leakage = 5.33898e-05 W
            Runtime Dynamic = 0.103139 W

          FP Front End RAT with 0 internal checkpoints:
            Area = 0.184722 mm^2
            Peak Dynamic = 0.755478 W
            Subthreshold Leakage = 0.00161077 W
            Gate Leakage = 0.000106646 W
            Runtime Dynamic = 0.0218904 W

          Free List:
            Area = 0.134204 mm^2
            Peak Dynamic = 0.0489219 W
            Subthreshold Leakage = 0.00229689 W
            Gate Leakage = 0.00013679 W
            Runtime Dynamic = 0.026763 W

          Int Retire RAT: 
            Area = 0.0322074 mm^2
            Peak Dynamic = 0.0187565 W
            Subthreshold Leakage = 0.00053943 W
            Gate Leakage = 5.41145e-05 W
            Runtime Dynamic = 0.00548334 W

          FP Retire RAT:
            Area = 0.0783228 mm^2
            Peak Dynamic = 0.059835 W
            Subthreshold Leakage = 0.000800707 W
            Gate Leakage = 5.66636e-05 W
            Runtime Dynamic = 0.00178618 W

          FP Free List:
            Area = 0.344767 mm^2
            Peak Dynamic = 0.0693774 W
            Subthreshold Leakage = 0.00346175 W
            Gate Leakage = 0.000192786 W
            Runtime Dynamic = 0.00757612 W

      Load Store Unit:
        Area = 14.8905 mm^2
        Peak Dynamic = 3.86242 W
        Subthreshold Leakage = 1.48768 W
        Gate Leakage = 0.123877 W
        Runtime Dynamic = 0.706794 W

          Data Cache:
            Area = 11.9681 mm^2
            Peak Dynamic = 3.34082 W
            Subthreshold Leakage = 1.27427 W
            Gate Leakage = 0.093823 W
            Runtime Dynamic = 0.304991 W

          LoadQ:
            Area = 0.655618 mm^2
            Peak Dynamic = 0.177389 W
            Subthreshold Leakage = 0.0493864 W
            Gate Leakage = 0.00361371 W
            Runtime Dynamic = 0.0768305 W

          StoreQ:
            Area = 0.563883 mm^2
            Peak Dynamic = 0.143812 W
            Subthreshold Leakage = 0.0424807 W
            Gate Leakage = 0.00322446 W
            Runtime Dynamic = 0.124575 W

      Memory Management Unit:
        Area = 2.4307 mm^2
        Peak Dynamic = 0.934976 W
        Subthreshold Leakage = 0.301298 W
        Runtime Dynamic = 0.500992 W

          Itlb:
            Area = 0.544221 mm^2
            Peak Dynamic = 0.123738 W
            Subthreshold Leakage = 0.0754318 W
            Gate Leakage = 0.00460206 W
            Runtime Dynamic = 0 W

          Dtlb:
            Area = 1.50232 mm^2
            Peak Dynamic = 0.310246 W
            Subthreshold Leakage = 0.104318 W
            Gate Leakage = 0.00612156 W
            Runtime Dynamic = 0 W

      Execution Unit:
        Area = 44.8411 mm^2
        Peak Dynamic = 17.9661 W
        Subthreshold Leakage = 8.29803 W
        Runtime Dynamic = 4.50886 W

          Register Files:
            Area = 9.35294 mm^2
            Peak Dynamic = 5.16897 W
            Subthreshold Leakage = 0.108279 W
            Gate Leakage = 0.00649419 W
            Runtime Dynamic = 0.518861 W

              Integer RF:
                Area = 4.67647 mm^2
                Peak Dynamic = 4.15405 W
                Subthreshold Leakage = 0.0541396 W
                Gate Leakage = 0.00324709 W
                Runtime Dynamic = 0.422989 W

              Floating Point RF:
                Area = 4.67647 mm^2
                Peak Dynamic = 1.01492 W
                Subthreshold Leakage = 0.0541396 W
                Gate Leakage = 0.00324709 W
                Runtime Dynamic = 0.0958719 W

          Instruction Scheduler:
            Area = 4.45101 mm^2
            Peak Dynamic = 5.59018 W
            Subthreshold Leakage = 0.144216 W
            Gate Leakage = 0.0104874 W
            Runtime Dynamic = 1.48181 W

              Instruction Window:
                Area = 0.754389 mm^2
                Peak Dynamic = 1.52834 W
                Subthreshold Leakage = 0.025308 W
                Gate Leakage = 0.00198776 W
                Runtime Dynamic = 0.635506 W

              FP Instruction Window:
                Area = 2.16861 mm^2
                Peak Dynamic = 2.8614 W
                Subthreshold Leakage = 0.0974086 W
                Gate Leakage = 0.00729916 W
                Runtime Dynamic = 0.16561 W

              ROB:
                Area = 1.52801 mm^2
                Peak Dynamic = 1.20044 W
                Subthreshold Leakage = 0.021499 W
                Gate Leakage = 0.0012005 W
                Runtime Dynamic = 0.680693 W

          Integer ALUs (Count: 6 ):
            Area = 0.672672 mm^2
            Peak Dynamic = 1.67975 W
            Subthreshold Leakage = 0.599188 W
            Gate Leakage = 0.0454759 W
            Runtime Dynamic = 0.546971 W

          Floating Point Units (FPUs) (Count: 6 ):
            Area = 29.1588 mm^2
            Peak Dynamic = 1.51177 W
            Subthreshold Leakage = 6.49334 W
            Gate Leakage = 0.492818 W
            Runtime Dynamic = 0.637685 W

          Complex ALUs (Mul/Div) (Count: 2 ):
            Area = 0.672672 mm^2
            Peak Dynamic = 0.379828 W
            Subthreshold Leakage = 0.599188 W
            Gate Leakage = 0.0454759 W
            Runtime Dynamic = 0.277242 W

          Results Broadcast Bus:
            Area Overhead = 0.148912 mm^2
            Peak Dynamic = 2.83396 W
            Subthreshold Leakage = 0.232263 W
            Gate Leakage = 0.0176278 W
            Runtime Dynamic = 0.244706 W

*****************************************************************************************
L2
      Area = 8.93442 mm^2
      Peak Dynamic = 2.12715 W
      Subthreshold Leakage = 0.614388 W
      Gate Leakage = 0.0308482 W
      Runtime Dynamic = 0.00641779 W

*****************************************************************************************
BUSES
      Area = 0.727789 mm^2
      Peak Dynamic = 2.92707 W
      Subthreshold Leakage = 0.0664831 W
      Gate Leakage = 0.00745312 W
      Runtime Dynamic = 0.16178 W

      Bus: 
        Area = 0.727789 mm^2
        Peak Dynamic = 2.92707 W
        Subthreshold Leakage = 0.0664831 W
        Gate Leakage = 0.00745312 W
        Runtime Dynamic = 0.16178 W

*****************************************************************************************
